# CIF file generated from ANA0.in
data_generated_cif
_audit_creation_method 'Generated by cp2k_to_cif'
_cell_length_a 13.567000
_cell_length_b 13.567000
_cell_length_c 13.567000
_cell_angle_alpha 90.000000
_cell_angle_beta 90.000000
_cell_angle_gamma 90.000000
loop_
_symmetry_equiv_pos_as_xyz
'x, y, z'
loop_
_atom_site_label
_atom_site_type_symbol
_atom_site_fract_x
_atom_site_fract_y
_atom_site_fract_z
O1 O 0.643390 0.470712 0.116661
Si2 Si 0.661559 0.588442 0.125001
O3 O 0.143389 0.970711 0.616657
Si4 Si 0.161559 0.088440 0.625001
O5 O 0.116655 0.643389 0.470710
Si6 Si 0.124999 0.661559 0.588441
O7 O 0.616660 0.143390 0.970710
Si8 Si 0.625000 0.161559 0.088441
O9 O 0.970711 0.616658 0.143390
Si10 Si 0.088441 0.625001 0.161561
O11 O 0.470712 0.116660 0.643390
Si12 Si 0.588441 0.124999 0.661558
O13 O 0.143390 0.470711 0.383337
Si14 Si 0.161559 0.588441 0.374999
O15 O 0.643390 0.970711 0.883346
Si16 Si 0.661560 0.088440 0.874999
O17 O 0.616658 0.643390 0.029289
Si18 Si 0.625000 0.661558 0.911558
O19 O 0.116661 0.143390 0.529289
Si20 Si 0.125001 0.161559 0.411559
O21 O 0.470712 0.616660 0.356610
Si22 Si 0.588441 0.625001 0.338440
O23 O 0.970711 0.116654 0.856612
Si24 Si 0.088441 0.124999 0.838441
O25 O 0.883337 0.143391 0.029288
Si26 Si 0.874999 0.161558 0.911558
O27 O 0.383341 0.643390 0.529289
Si28 Si 0.374999 0.661559 0.411559
O29 O 0.529289 0.616655 0.856610
Si30 Si 0.411559 0.624999 0.838441
O31 O 0.029289 0.116657 0.356611
Si32 Si 0.911559 0.124999 0.338441
O33 O 0.856610 0.470711 0.883342
Si34 Si 0.838441 0.588442 0.875000
O35 O 0.356612 0.970710 0.383349
Si36 Si 0.338441 0.088441 0.375001
O37 O 0.029290 0.383346 0.856610
Si38 Si 0.911560 0.375001 0.838441
O39 O 0.529289 0.883338 0.356610
Si40 Si 0.411558 0.875000 0.338442
O41 O 0.856611 0.029289 0.383345
Si42 Si 0.838441 0.911560 0.375000
O43 O 0.356610 0.529289 0.883340
Si44 Si 0.338442 0.411560 0.875001
O45 O 0.883344 0.356610 0.529289
Si46 Si 0.875001 0.338441 0.411559
O47 O 0.383341 0.856610 0.029290
Si48 Si 0.375001 0.838441 0.911559
O49 O 0.970711 0.383342 0.356610
Si50 Si 0.088442 0.374999 0.338440
O51 O 0.470710 0.883345 0.856611
Si52 Si 0.588442 0.875002 0.838441
O53 O 0.143390 0.029290 0.883343
Si54 Si 0.161558 0.911559 0.875000
O55 O 0.643390 0.529289 0.383338
Si56 Si 0.661558 0.411559 0.375000
O57 O 0.116652 0.356611 0.029289
Si58 Si 0.124999 0.338442 0.911560
O59 O 0.616662 0.856609 0.529289
Si60 Si 0.625002 0.838440 0.411559
O61 O 0.643388 0.029290 0.616652
Si62 Si 0.661560 0.911560 0.625000
O63 O 0.143390 0.529290 0.116664
Si64 Si 0.161557 0.411557 0.125001
O65 O 0.116658 0.856610 0.970711
Si66 Si 0.125000 0.838441 0.088441
O67 O 0.616655 0.356611 0.470711
Si68 Si 0.625000 0.338440 0.588440
O69 O 0.970711 0.883339 0.643390
Si70 Si 0.088441 0.875000 0.661558
O71 O 0.470710 0.383341 0.143391
Si72 Si 0.588441 0.375000 0.161560
O73 O 0.883339 0.856610 0.470712
Si74 Si 0.874999 0.838440 0.588441
O75 O 0.383349 0.356611 0.970711
Si76 Si 0.375000 0.338441 0.088440
O77 O 0.529289 0.383340 0.643390
Si78 Si 0.411559 0.374999 0.661560
O79 O 0.029289 0.883341 0.143390
Si80 Si 0.911559 0.875000 0.161558
O81 O 0.856610 0.529289 0.616657
Si82 Si 0.838441 0.411559 0.624999
O83 O 0.356611 0.029289 0.116654
Si84 Si 0.338440 0.911561 0.125000
O85 O 0.856611 0.970710 0.116653
Si86 Si 0.838440 0.088440 0.125000
O87 O 0.356610 0.470711 0.616659
Si88 Si 0.338441 0.588442 0.625000
O89 O 0.383341 0.143391 0.470711
Si90 Si 0.374999 0.161559 0.588442
O91 O 0.883342 0.643390 0.970711
Si92 Si 0.874999 0.661559 0.088441
O93 O 0.529289 0.116659 0.143390
Si94 Si 0.411558 0.124999 0.161558
O95 O 0.029288 0.616658 0.643390
Si96 Si 0.911558 0.625001 0.661559
O97 O 0.720710 0.893390 0.366654
O98 O 0.220712 0.393390 0.866662
O99 O 0.893390 0.366659 0.720710
O100 O 0.393391 0.866665 0.220711
O101 O 0.866658 0.220710 0.393389
O102 O 0.366661 0.720711 0.893390
O103 O 0.720711 0.393390 0.633340
O104 O 0.220711 0.893390 0.133344
O105 O 0.893390 0.866660 0.279289
O106 O 0.393389 0.366657 0.779289
O107 O 0.866656 0.720711 0.606610
O108 O 0.366655 0.220712 0.106611
O109 O 0.393391 0.133338 0.279289
O110 O 0.893390 0.633343 0.779289
O111 O 0.866656 0.779289 0.106610
O112 O 0.366655 0.279290 0.606610
O113 O 0.720710 0.106610 0.133345
O114 O 0.220711 0.606609 0.633342
O115 O 0.633342 0.279290 0.106610
O116 O 0.133344 0.779289 0.606611
O117 O 0.279289 0.106610 0.633345
O118 O 0.779289 0.606610 0.133342
O119 O 0.606609 0.133336 0.779288
O120 O 0.106610 0.633347 0.279290
O121 O 0.633345 0.220710 0.606611
O122 O 0.133343 0.720710 0.106610
O123 O 0.279290 0.393391 0.133335
O124 O 0.779290 0.893389 0.633346
O125 O 0.606611 0.366654 0.279289
O126 O 0.106610 0.866659 0.779289
O127 O 0.279290 0.893390 0.866657
O128 O 0.779289 0.393390 0.366660
O129 O 0.106612 0.366651 0.220711
O130 O 0.606609 0.866661 0.720711
O131 O 0.133340 0.220711 0.893390
O132 O 0.633346 0.720709 0.393389
O133 O 0.106610 0.133341 0.720711
O134 O 0.606611 0.633347 0.220711
O135 O 0.633341 0.779288 0.893390
O136 O 0.133342 0.279289 0.393391
O137 O 0.779289 0.106612 0.866652
O138 O 0.279289 0.606610 0.366659
O139 O 0.220711 0.106610 0.366656
O140 O 0.720710 0.606611 0.866657
O141 O 0.393389 0.633344 0.720711
O142 O 0.893391 0.133337 0.220711
O143 O 0.366655 0.779289 0.393389
O144 O 0.866663 0.279289 0.893390
