# CIF file generated from ANA1.in
data_generated_cif
_audit_creation_method 'Generated by cp2k_to_cif'
_cell_length_a 13.363400
_cell_length_b 13.363400
_cell_length_c 13.363400
_cell_angle_alpha 90.000000
_cell_angle_beta 90.000000
_cell_angle_gamma 90.000000
loop_
_symmetry_equiv_pos_as_xyz
'x, y, z'
loop_
_atom_site_label
_atom_site_type_symbol
_atom_site_fract_x
_atom_site_fract_y
_atom_site_fract_z
O1 O 0.645354 0.470519 0.115999
Si2 Si 0.660966 0.589419 0.125427
O3 O 0.145051 0.969802 0.613438
Si4 Si 0.160861 0.088640 0.624641
O5 O 0.115999 0.645355 0.470515
Si6 Si 0.125428 0.660966 0.589416
O7 O 0.613435 0.145045 0.969799
Si8 Si 0.624643 0.160888 0.088632
O9 O 0.969800 0.613437 0.145050
Si10 Si 0.088635 0.624643 0.160879
O11 O 0.470507 0.115997 0.645358
Si12 Si 0.589411 0.125427 0.660965
O13 O 0.145460 0.470522 0.384833
Si14 Si 0.161293 0.589392 0.374446
O15 O 0.646380 0.969705 0.885057
Si16 Si 0.661016 0.088725 0.875054
O17 O 0.614024 0.645263 0.030148
Si18 Si 0.624954 0.660845 0.911224
O19 O 0.115427 0.144967 0.529007
Si20 Si 0.125540 0.160945 0.410219
O21 O 0.471095 0.614439 0.354714
Si22 Si 0.589987 0.624919 0.339446
O23 O 0.969641 0.115251 0.854630
Si24 Si 0.088455 0.125282 0.838400
O25 O 0.884747 0.145374 0.030358
Si26 Si 0.874718 0.161603 0.911544
O27 O 0.385560 0.645285 0.528902
Si28 Si 0.375079 0.660555 0.410011
O29 O 0.529477 0.615167 0.854542
Si30 Si 0.410610 0.625561 0.838699
O31 O 0.030295 0.114942 0.353621
Si32 Si 0.911274 0.124945 0.338984
O33 O 0.855031 0.470987 0.884562
Si34 Si 0.839056 0.589779 0.874459
O35 O 0.354740 0.969851 0.385975
Si36 Si 0.339155 0.088775 0.375046
O37 O 0.030201 0.386563 0.854951
Si38 Si 0.911364 0.375357 0.839122
O39 O 0.529493 0.884004 0.354641
Si40 Si 0.410590 0.874573 0.339034
O41 O 0.854951 0.030198 0.386562
Si42 Si 0.839140 0.911359 0.375359
O43 O 0.354641 0.529494 0.884004
Si44 Si 0.339035 0.410590 0.874573
O45 O 0.884002 0.354644 0.529485
Si46 Si 0.874572 0.339034 0.410585
O47 O 0.386561 0.854949 0.030198
Si48 Si 0.375359 0.839141 0.911359
O49 O 0.969851 0.385975 0.354738
Si50 Si 0.088776 0.375046 0.339155
O51 O 0.470993 0.884575 0.855034
Si52 Si 0.589782 0.874460 0.839055
O53 O 0.145370 0.030358 0.884750
Si54 Si 0.161601 0.911544 0.874719
O55 O 0.645284 0.528902 0.385559
Si56 Si 0.660554 0.410010 0.375077
O57 O 0.114941 0.353625 0.030294
Si58 Si 0.124945 0.338985 0.911274
O59 O 0.615168 0.854542 0.529476
Si60 Si 0.625560 0.838701 0.410608
O61 O 0.645260 0.030150 0.614025
Si62 Si 0.660846 0.911224 0.624953
O63 O 0.144968 0.529013 0.115437
Si64 Si 0.160943 0.410222 0.125540
O65 O 0.115254 0.854622 0.969641
Si66 Si 0.125282 0.838398 0.088456
O67 O 0.614440 0.354715 0.471095
Si68 Si 0.624921 0.339446 0.589988
O69 O 0.969706 0.885059 0.646378
Si70 Si 0.088726 0.875055 0.661015
O71 O 0.470520 0.384834 0.145460
Si72 Si 0.589391 0.374450 0.161288
O73 O 0.884573 0.855033 0.470992
Si74 Si 0.874461 0.839056 0.589781
O75 O 0.385975 0.354740 0.969851
Si76 Si 0.375045 0.339156 0.088776
O77 O 0.528905 0.385561 0.645285
Si78 Si 0.410013 0.375082 0.660554
O79 O 0.030357 0.884751 0.145366
Si80 Si 0.911543 0.874720 0.161599
O81 O 0.854540 0.529478 0.615167
Si82 Si 0.838706 0.410609 0.625554
O83 O 0.353627 0.030295 0.114942
Si84 Si 0.338986 0.911274 0.124945
O85 O 0.854618 0.969642 0.115255
Si86 Si 0.838395 0.088458 0.125281
O87 O 0.354715 0.471096 0.614439
Si88 Si 0.339445 0.589988 0.624918
O89 O 0.384833 0.145458 0.470523
Si90 Si 0.374440 0.161300 0.589392
O91 O 0.885059 0.646375 0.969705
Si92 Si 0.875055 0.661016 0.088725
O93 O 0.529015 0.115444 0.144972
Si94 Si 0.410222 0.125542 0.160944
O95 O 0.030149 0.614025 0.645262
Si96 Si 0.911224 0.624955 0.660845
O97 O 0.720322 0.895540 0.363389
O98 O 0.220211 0.395034 0.864749
O99 O 0.895584 0.363386 0.720293
O100 O 0.395034 0.864749 0.220210
O101 O 0.864749 0.220211 0.395031
O102 O 0.363389 0.720327 0.895531
O103 O 0.719695 0.396148 0.637088
O104 O 0.220150 0.895464 0.134860
O105 O 0.896673 0.864954 0.280775
O106 O 0.394442 0.363182 0.779322
O107 O 0.864579 0.719902 0.604082
O108 O 0.363205 0.220319 0.104148
O109 O 0.395919 0.135421 0.280099
O110 O 0.895852 0.636795 0.779681
O111 O 0.865140 0.779851 0.104535
O112 O 0.362913 0.280312 0.603846
O113 O 0.719219 0.103344 0.135046
O114 O 0.220679 0.605558 0.636821
O115 O 0.636614 0.279727 0.104382
O116 O 0.135252 0.779790 0.604967
O117 O 0.279677 0.104464 0.636611
O118 O 0.779789 0.604970 0.135250
O119 O 0.604967 0.135251 0.779788
O120 O 0.104415 0.636614 0.279708
O121 O 0.636819 0.220678 0.605558
O122 O 0.135046 0.719222 0.103338
O123 O 0.280097 0.395920 0.135419
O124 O 0.779682 0.895852 0.636795
O125 O 0.603855 0.362910 0.280299
O126 O 0.104537 0.865140 0.779851
O127 O 0.280776 0.896674 0.864954
O128 O 0.779322 0.394442 0.363179
O129 O 0.104148 0.363205 0.220318
O130 O 0.604081 0.864578 0.719900
O131 O 0.134860 0.220150 0.895464
O132 O 0.637087 0.719689 0.396154
O133 O 0.103327 0.135047 0.719224
O134 O 0.605557 0.636822 0.220679
O135 O 0.636795 0.779681 0.895851
O136 O 0.135422 0.280099 0.395918
O137 O 0.779850 0.104537 0.865140
O138 O 0.280304 0.603852 0.362911
O139 O 0.220319 0.104148 0.363205
O140 O 0.719901 0.604081 0.864580
O141 O 0.396156 0.637087 0.719687
O142 O 0.895463 0.134860 0.220149
O143 O 0.363181 0.779323 0.394442
O144 O 0.864954 0.280779 0.896663
