# CIF file generated from ANA2.in
data_generated_cif
_audit_creation_method 'Generated by cp2k_to_cif'
_cell_length_a 13.159990
_cell_length_b 13.159990
_cell_length_c 13.159990
_cell_angle_alpha 90.000000
_cell_angle_beta 90.000000
_cell_angle_gamma 90.000000
loop_
_symmetry_equiv_pos_as_xyz
'x, y, z'
loop_
_atom_site_label
_atom_site_type_symbol
_atom_site_fract_x
_atom_site_fract_y
_atom_site_fract_z
O1 O 0.647172 0.469558 0.112217
Si2 Si 0.660516 0.589484 0.125000
O3 O 0.147175 0.969558 0.612220
Si4 Si 0.160517 0.089483 0.625000
O5 O 0.112219 0.647172 0.469558
Si6 Si 0.125000 0.660518 0.589484
O7 O 0.612216 0.147169 0.969559
Si8 Si 0.624998 0.160517 0.089483
O9 O 0.969558 0.612217 0.147171
Si10 Si 0.089482 0.625000 0.160517
O11 O 0.469557 0.112223 0.647180
Si12 Si 0.589483 0.125001 0.660518
O13 O 0.147172 0.469559 0.387782
Si14 Si 0.160517 0.589484 0.374999
O15 O 0.647171 0.969558 0.887782
Si16 Si 0.660518 0.089482 0.875000
O17 O 0.612218 0.647173 0.030442
Si18 Si 0.625001 0.660515 0.910517
O19 O 0.112214 0.147167 0.530441
Si20 Si 0.125000 0.160516 0.410517
O21 O 0.469559 0.612216 0.352833
Si22 Si 0.589482 0.624999 0.339483
O23 O 0.969558 0.112219 0.852826
Si24 Si 0.089483 0.125000 0.839483
O25 O 0.887785 0.147167 0.030441
Si26 Si 0.875000 0.160516 0.910517
O27 O 0.387780 0.647173 0.530442
Si28 Si 0.374999 0.660517 0.410516
O29 O 0.530441 0.612214 0.852832
Si30 Si 0.410516 0.624999 0.839484
O31 O 0.030442 0.112218 0.352826
Si32 Si 0.910517 0.125001 0.339482
O33 O 0.852834 0.469559 0.887785
Si34 Si 0.839483 0.589482 0.875000
O35 O 0.352826 0.969557 0.387781
Si36 Si 0.339483 0.089483 0.375000
O37 O 0.030442 0.387778 0.852821
Si38 Si 0.910517 0.374999 0.839484
O39 O 0.530442 0.887784 0.352832
Si40 Si 0.410518 0.875001 0.339484
O41 O 0.852829 0.030441 0.387782
Si42 Si 0.839484 0.910516 0.375000
O43 O 0.352823 0.530441 0.887780
Si44 Si 0.339483 0.410516 0.874999
O45 O 0.887783 0.352829 0.530441
Si46 Si 0.875000 0.339483 0.410516
O47 O 0.387781 0.852828 0.030442
Si48 Si 0.375000 0.839482 0.910517
O49 O 0.969559 0.387781 0.352826
Si50 Si 0.089483 0.375000 0.339483
O51 O 0.469558 0.887783 0.852830
Si52 Si 0.589482 0.875000 0.839484
O53 O 0.147172 0.030441 0.887782
Si54 Si 0.160517 0.910517 0.875000
O55 O 0.647171 0.530442 0.387783
Si56 Si 0.660518 0.410517 0.374999
O57 O 0.112216 0.352832 0.030440
Si58 Si 0.124999 0.339483 0.910516
O59 O 0.612221 0.852822 0.530442
Si60 Si 0.625001 0.839482 0.410517
O61 O 0.647164 0.030440 0.612213
Si62 Si 0.660516 0.910517 0.624998
O63 O 0.147171 0.530442 0.112219
Si64 Si 0.160517 0.410518 0.124999
O65 O 0.112218 0.852831 0.969559
Si66 Si 0.124999 0.839483 0.089484
O67 O 0.612216 0.352828 0.469557
Si68 Si 0.624999 0.339483 0.589483
O69 O 0.969558 0.887783 0.647171
Si70 Si 0.089483 0.875001 0.660517
O71 O 0.469558 0.387783 0.147171
Si72 Si 0.589483 0.375001 0.160516
O73 O 0.887783 0.852829 0.469559
Si74 Si 0.875000 0.839483 0.589484
O75 O 0.387783 0.352829 0.969558
Si76 Si 0.375001 0.339483 0.089483
O77 O 0.530441 0.387782 0.647172
Si78 Si 0.410518 0.375000 0.660516
O79 O 0.030442 0.887783 0.147171
Si80 Si 0.910518 0.875001 0.160518
O81 O 0.852830 0.530442 0.612218
Si82 Si 0.839482 0.410518 0.624998
O83 O 0.352824 0.030442 0.112220
Si84 Si 0.339483 0.910516 0.125001
O85 O 0.852823 0.969557 0.112222
Si86 Si 0.839483 0.089483 0.125000
O87 O 0.352826 0.469558 0.612220
Si88 Si 0.339483 0.589483 0.625001
O89 O 0.387787 0.147165 0.469560
Si90 Si 0.375001 0.160519 0.589484
O91 O 0.887781 0.647174 0.969558
Si92 Si 0.874999 0.660518 0.089483
O93 O 0.530441 0.112216 0.147170
Si94 Si 0.410517 0.125000 0.160518
O95 O 0.030441 0.612217 0.647171
Si96 Si 0.910517 0.625001 0.660518
O97 O 0.719560 0.897172 0.362218
O98 O 0.219559 0.397167 0.862215
O99 O 0.897165 0.362214 0.719559
O100 O 0.397178 0.862220 0.219558
O101 O 0.862217 0.219559 0.397171
O102 O 0.362218 0.719558 0.897172
O103 O 0.719557 0.397176 0.637779
O104 O 0.219559 0.897165 0.137787
O105 O 0.897173 0.862217 0.280443
O106 O 0.397174 0.362218 0.780442
O107 O 0.862217 0.719559 0.602831
O108 O 0.362219 0.219558 0.102827
O109 O 0.397171 0.137783 0.280442
O110 O 0.897172 0.637782 0.780442
O111 O 0.862218 0.780442 0.102828
O112 O 0.362220 0.280443 0.602824
O113 O 0.719558 0.102833 0.137783
O114 O 0.219560 0.602833 0.637786
O115 O 0.637779 0.280442 0.102825
O116 O 0.137782 0.780443 0.602828
O117 O 0.280441 0.102834 0.637784
O118 O 0.780440 0.602832 0.137785
O119 O 0.602835 0.137784 0.780441
O120 O 0.102825 0.637781 0.280442
O121 O 0.637783 0.219558 0.602828
O122 O 0.137781 0.719558 0.102827
O123 O 0.280442 0.397173 0.137780
O124 O 0.780442 0.897175 0.637781
O125 O 0.602828 0.362218 0.280441
O126 O 0.102825 0.862219 0.780443
O127 O 0.280441 0.897169 0.862216
O128 O 0.780442 0.397172 0.362218
O129 O 0.102833 0.362215 0.219559
O130 O 0.602827 0.862218 0.719558
O131 O 0.137782 0.219558 0.897174
O132 O 0.637785 0.719559 0.397166
O133 O 0.102827 0.137783 0.719558
O134 O 0.602822 0.637779 0.219558
O135 O 0.637783 0.780440 0.897168
O136 O 0.137781 0.280442 0.397175
O137 O 0.780442 0.102826 0.862220
O138 O 0.280440 0.602832 0.362215
O139 O 0.219559 0.102830 0.362219
O140 O 0.719559 0.602825 0.862219
O141 O 0.397175 0.637781 0.719558
O142 O 0.897171 0.137783 0.219559
O143 O 0.362219 0.780442 0.397171
O144 O 0.862219 0.280441 0.897175
