# CIF file generated from ANA3.in
data_generated_cif
_audit_creation_method 'Generated by cp2k_to_cif'
_cell_length_a 13.770505
_cell_length_b 13.770505
_cell_length_c 13.770505
_cell_angle_alpha 90.000000
_cell_angle_beta 90.000000
_cell_angle_gamma 90.000000
loop_
_symmetry_equiv_pos_as_xyz
'x, y, z'
loop_
_atom_site_label
_atom_site_type_symbol
_atom_site_fract_x
_atom_site_fract_y
_atom_site_fract_z
O1 O 0.642655 0.471026 0.118585
Si2 Si 0.661932 0.588068 0.125000
O3 O 0.142656 0.971026 0.618585
Si4 Si 0.161932 0.088068 0.625001
O5 O 0.118586 0.642656 0.471025
Si6 Si 0.125000 0.661932 0.588068
O7 O 0.618586 0.142655 0.971025
Si8 Si 0.625000 0.161932 0.088068
O9 O 0.971026 0.618585 0.142656
Si10 Si 0.088068 0.624999 0.161932
O11 O 0.471026 0.118585 0.642656
Si12 Si 0.588068 0.125000 0.661932
O13 O 0.142656 0.471026 0.381414
Si14 Si 0.161931 0.588068 0.375000
O15 O 0.642656 0.971026 0.881415
Si16 Si 0.661932 0.088068 0.875000
O17 O 0.618586 0.642656 0.028974
Si18 Si 0.625000 0.661932 0.911931
O19 O 0.118585 0.142656 0.528974
Si20 Si 0.125000 0.161932 0.411932
O21 O 0.471026 0.618586 0.357344
Si22 Si 0.588069 0.625000 0.338068
O23 O 0.971026 0.118585 0.857345
Si24 Si 0.088068 0.125000 0.838068
O25 O 0.881414 0.142656 0.028975
Si26 Si 0.875001 0.161932 0.911932
O27 O 0.381415 0.642656 0.528973
Si28 Si 0.375000 0.661932 0.411932
O29 O 0.528974 0.618586 0.857344
Si30 Si 0.411932 0.625001 0.838068
O31 O 0.028974 0.118586 0.357344
Si32 Si 0.911932 0.125000 0.338068
O33 O 0.857345 0.471026 0.881415
Si34 Si 0.838068 0.588068 0.875000
O35 O 0.357345 0.971025 0.381415
Si36 Si 0.338069 0.088068 0.375000
O37 O 0.028975 0.381415 0.857344
Si38 Si 0.911932 0.375000 0.838069
O39 O 0.528974 0.881414 0.357344
Si40 Si 0.411932 0.875000 0.338068
O41 O 0.857344 0.028974 0.381415
Si42 Si 0.838068 0.911932 0.375000
O43 O 0.357345 0.528975 0.881414
Si44 Si 0.338069 0.411931 0.875000
O45 O 0.881415 0.357344 0.528974
Si46 Si 0.875000 0.338069 0.411932
O47 O 0.381414 0.857345 0.028975
Si48 Si 0.375000 0.838069 0.911932
O49 O 0.971026 0.381415 0.357345
Si50 Si 0.088068 0.375000 0.338068
O51 O 0.471027 0.881415 0.857344
Si52 Si 0.588068 0.875000 0.838068
O53 O 0.142656 0.028974 0.881414
Si54 Si 0.161933 0.911932 0.875000
O55 O 0.642656 0.528974 0.381414
Si56 Si 0.661932 0.411932 0.375000
O57 O 0.118585 0.357344 0.028974
Si58 Si 0.125000 0.338068 0.911932
O59 O 0.618586 0.857344 0.528974
Si60 Si 0.625000 0.838068 0.411932
O61 O 0.642656 0.028974 0.618585
Si62 Si 0.661932 0.911932 0.625000
O63 O 0.142656 0.528974 0.118586
Si64 Si 0.161932 0.411931 0.125000
O65 O 0.118585 0.857344 0.971027
Si66 Si 0.125000 0.838068 0.088068
O67 O 0.618586 0.357344 0.471026
Si68 Si 0.625000 0.338068 0.588068
O69 O 0.971026 0.881415 0.642656
Si70 Si 0.088068 0.875000 0.661932
O71 O 0.471026 0.381415 0.142656
Si72 Si 0.588068 0.375000 0.161931
O73 O 0.881414 0.857345 0.471025
Si74 Si 0.875000 0.838068 0.588069
O75 O 0.381415 0.357344 0.971026
Si76 Si 0.375000 0.338068 0.088068
O77 O 0.528975 0.381414 0.642655
Si78 Si 0.411932 0.375000 0.661932
O79 O 0.028975 0.881414 0.142655
Si80 Si 0.911931 0.875000 0.161931
O81 O 0.857344 0.528974 0.618585
Si82 Si 0.838068 0.411932 0.625000
O83 O 0.357344 0.028974 0.118585
Si84 Si 0.338069 0.911932 0.124999
O85 O 0.857344 0.971025 0.118586
Si86 Si 0.838068 0.088068 0.124999
O87 O 0.357344 0.471026 0.618585
Si88 Si 0.338068 0.588068 0.625000
O89 O 0.381414 0.142656 0.471026
Si90 Si 0.375000 0.161932 0.588068
O91 O 0.881415 0.642656 0.971026
Si92 Si 0.875000 0.661932 0.088068
O93 O 0.528974 0.118586 0.142655
Si94 Si 0.411932 0.125000 0.161932
O95 O 0.028974 0.618586 0.642655
Si96 Si 0.911932 0.625000 0.661932
O97 O 0.721026 0.892656 0.368585
O98 O 0.221026 0.392656 0.868586
O99 O 0.892655 0.368586 0.721025
O100 O 0.392656 0.868585 0.221026
O101 O 0.868586 0.221026 0.392656
O102 O 0.368586 0.721025 0.892655
O103 O 0.721026 0.392656 0.631414
O104 O 0.221025 0.892655 0.131415
O105 O 0.892656 0.868586 0.278975
O106 O 0.392656 0.368585 0.778974
O107 O 0.868585 0.721026 0.607344
O108 O 0.368585 0.221026 0.107344
O109 O 0.392655 0.131414 0.278975
O110 O 0.892656 0.631415 0.778974
O111 O 0.868586 0.778974 0.107344
O112 O 0.368585 0.278974 0.607344
O113 O 0.721026 0.107344 0.131414
O114 O 0.221026 0.607344 0.631414
O115 O 0.631414 0.278975 0.107344
O116 O 0.131415 0.778974 0.607344
O117 O 0.278974 0.107344 0.631415
O118 O 0.778974 0.607344 0.131415
O119 O 0.607345 0.131415 0.778974
O120 O 0.107344 0.631415 0.278974
O121 O 0.631415 0.221026 0.607344
O122 O 0.131415 0.721026 0.107344
O123 O 0.278974 0.392656 0.131415
O124 O 0.778975 0.892656 0.631415
O125 O 0.607345 0.368585 0.278974
O126 O 0.107344 0.868585 0.778974
O127 O 0.278974 0.892656 0.868585
O128 O 0.778974 0.392655 0.368586
O129 O 0.107344 0.368585 0.221026
O130 O 0.607345 0.868585 0.721025
O131 O 0.131415 0.221026 0.892656
O132 O 0.631415 0.721025 0.392655
O133 O 0.107344 0.131414 0.721025
O134 O 0.607344 0.631415 0.221025
O135 O 0.631415 0.778974 0.892655
O136 O 0.131415 0.278974 0.392656
O137 O 0.778974 0.107344 0.868585
O138 O 0.278974 0.607344 0.368585
O139 O 0.221025 0.107344 0.368586
O140 O 0.721026 0.607344 0.868585
O141 O 0.392656 0.631415 0.721025
O142 O 0.892656 0.131415 0.221027
O143 O 0.368585 0.778974 0.392656
O144 O 0.868586 0.278975 0.892656
