# CIF file generated from BEC0.in
data_generated_cif
_audit_creation_method 'Generated by cp2k_to_cif'
_cell_length_a 12.770000
_cell_length_b 12.770000
_cell_length_c 12.977000
_cell_angle_alpha 90.000000
_cell_angle_beta 90.000000
_cell_angle_gamma 90.000000
loop_
_symmetry_equiv_pos_as_xyz
'x, y, z'
loop_
_atom_site_label
_atom_site_type_symbol
_atom_site_fract_x
_atom_site_fract_y
_atom_site_fract_z
O1 O 0.000011 0.623776 0.351377
O2 O -0.623743 -0.000003 0.851381
O3 O 0.000002 -0.623737 0.351374
O4 O 0.623769 -0.000029 0.851369
O5 O 0.000003 -0.623775 -0.351378
O6 O -0.623741 0.000029 0.148619
O7 O 0.000015 0.623739 -0.351374
O8 O 0.623771 0.000007 0.148631
O9 O 0.860734 0.661151 0.500028
O10 O -0.661152 0.860742 1.000020
O11 O -0.860746 -0.661156 0.499964
O12 O 0.661170 -0.860750 0.999978
O13 O 0.860759 -0.661159 -0.500022
O14 O -0.661144 -0.860755 -0.000016
O15 O -0.860770 0.661168 -0.499974
O16 O 0.661164 0.860765 0.000021
O17 O 0.834664 0.500044 0.372551
O18 O -0.499978 0.834659 0.872578
O19 O -0.834662 -0.499942 0.372569
O20 O 0.500040 -0.834667 0.872538
O21 O 0.834664 -0.500048 -0.372553
O22 O -0.499953 -0.834658 0.127426
O23 O -0.834661 0.499954 -0.372565
O24 O 0.500013 0.834667 0.127461
O25 O 0.810113 0.692235 0.694269
O26 O -0.692347 0.810162 1.194224
O27 O -0.810085 -0.692464 0.694085
O28 O 0.692457 -0.810079 1.194086
O29 O 0.810024 -0.692334 -0.694072
O30 O -0.692350 -0.810031 -0.194069
O31 O -0.810003 0.692503 -0.693954
O32 O 0.692435 0.809967 -0.193964
O33 O -0.810007 -0.692109 -0.694247
O34 O 0.692550 -0.810202 -0.194157
O35 O 0.810186 0.692540 -0.694141
O36 O -0.692212 0.810028 -0.194175
O37 O -0.809935 0.692247 0.694038
O38 O 0.692532 0.810075 1.194020
O39 O 0.810089 -0.692567 0.694003
O40 O -0.692232 -0.809925 1.194034
O41 O 0.001820 0.859926 -0.000053
O42 O -0.859935 0.001841 0.500010
O43 O -0.001882 -0.859932 0.000057
O44 O 0.859920 -0.001840 0.499995
O45 O 0.001843 -0.000013 0.148469
O46 O -0.000012 -0.001855 0.648466
O47 O 0.001841 0.000016 -0.148470
O48 O -0.000007 0.001855 0.351534
O49 O 0.896947 0.181704 0.165487
O50 O -0.182134 0.896591 0.665395
O51 O -0.896649 -0.182127 0.165384
O52 O 0.181701 -0.896941 0.665461
O53 O 0.897096 -0.181679 -0.164802
O54 O -0.182102 -0.896842 0.335215
O55 O -0.896849 0.182092 -0.164775
O56 O 0.181665 0.897145 0.335208
O57 O -0.896607 -0.182150 -0.165434
O58 O 0.182140 -0.896557 0.334580
O59 O 0.896959 0.181687 -0.165403
O60 O -0.181693 0.896945 0.334593
O61 O -0.896792 0.182110 0.164819
O62 O 0.182097 0.896806 0.664813
O63 O 0.897136 -0.181663 0.164762
O64 O -0.181664 -0.897161 0.664773
Si65 Si 0.876887 0.619288 0.617341
Si66 Si -0.619326 0.876903 1.117337
Si67 Si -0.876868 -0.619378 0.617300
Si68 Si 0.619375 -0.876869 1.117304
Si69 Si 0.876882 -0.619291 -0.617319
Si70 Si -0.619298 -0.876883 -0.117319
Si71 Si -0.876869 0.619382 -0.617288
Si72 Si 0.619344 0.876856 -0.117289
Si73 Si -0.876871 -0.619262 -0.617331
Si74 Si 0.619379 -0.876896 -0.117347
Si75 Si 0.876884 0.619385 -0.617316
Si76 Si -0.619304 0.876870 -0.117298
Si77 Si -0.876865 0.619278 0.617309
Si78 Si 0.619348 0.876882 1.117330
Si79 Si 0.876883 -0.619382 0.617304
Si80 Si -0.619280 -0.876853 1.117286
Si81 Si 0.805501 0.805320 0.249737
Si82 Si -0.805005 0.805198 0.749745
Si83 Si -0.805184 -0.804952 0.249750
Si84 Si 0.805337 -0.805523 0.749741
Si85 Si -0.805309 -0.805231 -0.249794
Si86 Si 0.805219 -0.805295 0.250206
Si87 Si 0.805388 0.805063 -0.249679
Si88 Si -0.805136 0.805446 0.250319
Si89 Si 0.000062 0.124191 0.121648
Si90 Si -0.124182 -0.000657 0.621559
Si91 Si 0.000623 -0.124178 0.121511
Si92 Si 0.124188 -0.000052 0.621605
Si93 Si 0.000627 -0.124193 -0.121646
Si94 Si -0.124170 0.000049 0.378439
Si95 Si 0.000051 0.124173 -0.121510
Si96 Si 0.124200 0.000667 0.378405
