# CIF file generated from BEC1.in
data_generated_cif
_audit_creation_method 'Generated by cp2k_to_cif'
_cell_length_a 12.578450
_cell_length_b 12.578450
_cell_length_c 12.782345
_cell_angle_alpha 90.000000
_cell_angle_beta 90.000000
_cell_angle_gamma 90.000000
loop_
_symmetry_equiv_pos_as_xyz
'x, y, z'
loop_
_atom_site_label
_atom_site_type_symbol
_atom_site_fract_x
_atom_site_fract_y
_atom_site_fract_z
O1 O 0.000443 0.623079 0.351110
O2 O -0.623222 0.000018 0.851070
O3 O -0.000003 -0.623210 0.351084
O4 O 0.623256 -0.000014 0.851050
O5 O 0.000002 -0.623178 -0.351075
O6 O -0.623214 -0.000011 0.148951
O7 O 0.000443 0.623108 -0.351118
O8 O 0.623252 -0.000028 0.148947
O9 O 0.860632 0.669908 0.499979
O10 O -0.669854 0.860583 0.999984
O11 O -0.860584 -0.669876 0.500012
O12 O 0.669872 -0.860603 1.000029
O13 O 0.860554 -0.669764 -0.499986
O14 O -0.669877 -0.860575 0.000047
O15 O -0.860463 0.669924 -0.500011
O16 O 0.669882 0.860566 -0.000015
O17 O 0.830977 0.500251 0.381381
O18 O -0.499941 0.830920 0.881394
O19 O -0.830816 -0.500045 0.381447
O20 O 0.500032 -0.830940 0.881443
O21 O 0.830987 -0.499687 -0.381377
O22 O -0.500030 -0.830936 0.118624
O23 O -0.830811 0.499990 -0.381436
O24 O 0.500052 0.830923 0.118582
O25 O 0.808994 0.687559 0.698369
O26 O -0.686006 0.806127 1.197949
O27 O -0.806097 -0.685853 0.698021
O28 O 0.686165 -0.806061 1.197860
O29 O 0.806103 -0.685791 -0.698019
O30 O -0.686003 -0.806016 -0.197825
O31 O -0.805944 0.686200 -0.697847
O32 O 0.686341 0.806088 -0.198044
O33 O -0.806093 -0.685905 -0.698019
O34 O 0.686141 -0.806000 -0.197789
O35 O 0.808977 0.687303 -0.698474
O36 O -0.686053 0.806183 -0.197997
O37 O -0.805954 0.686346 0.697792
O38 O 0.686250 0.806015 1.197982
O39 O 0.806097 -0.685635 0.698061
O40 O -0.686356 -0.806249 1.198040
O41 O 0.001983 0.860349 0.000045
O42 O -0.859502 0.001779 0.500014
O43 O -0.001905 -0.863875 -0.000095
O44 O 0.859500 0.001968 0.500030
O45 O 0.002167 0.000228 0.152559
O46 O 0.000001 0.001874 0.649045
O47 O 0.002177 0.000156 -0.152568
O48 O -0.000400 -0.002162 0.350971
O49 O 0.895331 0.185526 0.164296
O50 O -0.185466 0.896337 0.664214
O51 O -0.894964 -0.185727 0.164646
O52 O 0.185453 -0.894452 0.664638
O53 O 0.894669 -0.181879 -0.164067
O54 O -0.184947 -0.894382 0.335443
O55 O -0.895022 0.185770 -0.164039
O56 O 0.185694 0.895477 0.335646
O57 O -0.894961 -0.185732 -0.164612
O58 O 0.182122 -0.894115 0.335304
O59 O 0.895370 0.185544 -0.164347
O60 O -0.185956 0.895817 0.335836
O61 O -0.895171 0.185881 0.163680
O62 O 0.185259 0.895683 0.664341
O63 O 0.894608 -0.181864 0.164075
O64 O -0.185358 -0.894091 0.664548
Si65 Si 0.876225 0.620146 0.615942
Si66 Si -0.619916 0.875598 1.115987
Si67 Si -0.875607 -0.619921 0.615984
Si68 Si 0.619967 -0.875629 1.116030
Si69 Si 0.875602 -0.619794 -0.615995
Si70 Si -0.619929 -0.875607 -0.115954
Si71 Si -0.875281 0.619940 -0.615962
Si72 Si 0.620077 0.875550 -0.116080
Si73 Si -0.875603 -0.619963 -0.615981
Si74 Si 0.620003 -0.875629 -0.115985
Si75 Si 0.876235 0.620073 -0.615952
Si76 Si -0.619915 0.875617 -0.116024
Si77 Si -0.875270 0.619984 0.615961
Si78 Si 0.620061 0.875541 1.116042
Si79 Si 0.875612 -0.619734 0.615996
Si80 Si -0.620026 -0.875611 1.116082
Si81 Si 0.802389 0.803205 0.249911
Si82 Si -0.801955 0.802374 0.749721
Si83 Si -0.802575 -0.801757 0.249685
Si84 Si 0.802139 -0.801485 0.750311
Si85 Si -0.802009 -0.801674 -0.249700
Si86 Si 0.802197 -0.801671 0.249747
Si87 Si 0.802504 0.803493 -0.250014
Si88 Si -0.801889 0.802203 0.250210
Si89 Si 0.000129 0.125420 0.122924
Si90 Si -0.125779 0.001229 0.622556
Si91 Si 0.000925 -0.124889 0.122848
Si92 Si 0.125826 0.000835 0.622633
Si93 Si 0.000957 -0.124919 -0.122731
Si94 Si -0.126061 0.000443 0.377484
Si95 Si 0.000212 0.125411 -0.123123
Si96 Si 0.125218 -0.000115 0.377483
