# CIF file generated from BEC2.in
data_generated_cif
_audit_creation_method 'Generated by cp2k_to_cif'
_cell_length_a 12.386900
_cell_length_b 12.386900
_cell_length_c 12.587690
_cell_angle_alpha 90.000000
_cell_angle_beta 90.000000
_cell_angle_gamma 90.000000
loop_
_symmetry_equiv_pos_as_xyz
'x, y, z'
loop_
_atom_site_label
_atom_site_type_symbol
_atom_site_fract_x
_atom_site_fract_y
_atom_site_fract_z
O1 O -0.000002 0.621091 0.350536
O2 O -0.621097 -0.000000 0.850522
O3 O -0.000012 -0.621097 0.350523
O4 O 0.621095 -0.000009 0.850557
O5 O -0.000003 -0.621103 -0.350538
O6 O -0.621100 0.000006 0.149467
O7 O 0.000005 0.621103 -0.350532
O8 O 0.621101 0.000004 0.149481
O9 O 0.857193 0.666170 0.499996
O10 O -0.666171 0.857193 0.999996
O11 O -0.857195 -0.666170 0.500016
O12 O 0.666162 -0.857187 1.000004
O13 O 0.857183 -0.666158 -0.500001
O14 O -0.666160 -0.857188 0.000012
O15 O -0.857186 0.666157 -0.499989
O16 O 0.666160 0.857178 -0.000017
O17 O 0.823913 0.500011 0.372282
O18 O -0.499993 0.823916 0.872284
O19 O -0.823903 -0.500003 0.372285
O20 O 0.500018 -0.823901 0.872283
O21 O 0.823909 -0.499997 -0.372284
O22 O -0.499992 -0.823923 0.127717
O23 O -0.823923 0.499990 -0.372286
O24 O 0.499986 0.823909 0.127714
O25 O 0.806334 0.687002 0.700000
O26 O -0.686999 0.806327 1.199998
O27 O -0.806334 -0.686994 0.699993
O28 O 0.686998 -0.806335 1.200000
O29 O 0.806332 -0.686987 -0.700001
O30 O -0.686989 -0.806330 -0.200002
O31 O -0.806329 0.686984 -0.699998
O32 O 0.686980 0.806330 -0.200000
O33 O -0.806331 -0.686999 -0.700004
O34 O 0.686998 -0.806334 -0.200000
O35 O 0.806336 0.687004 -0.699996
O36 O -0.687005 0.806336 -0.200001
O37 O -0.806331 0.686987 0.699997
O38 O 0.686997 0.806334 1.200003
O39 O 0.806328 -0.686989 0.699996
O40 O -0.686988 -0.806328 1.199995
O41 O 0.000002 0.877512 -0.000004
O42 O -0.877517 0.000003 0.499998
O43 O 0.000001 -0.877515 0.000006
O44 O 0.877513 0.000003 0.500007
O45 O 0.000001 0.000002 0.159875
O46 O 0.000003 0.000001 0.659876
O47 O -0.000001 0.000001 -0.159873
O48 O 0.000003 0.000000 0.340126
O49 O 0.893924 0.186658 0.160616
O50 O -0.186654 0.893924 0.660615
O51 O -0.893925 -0.186656 0.160619
O52 O 0.186657 -0.893929 0.660616
O53 O 0.893926 -0.186653 -0.160622
O54 O -0.186650 -0.893920 0.339377
O55 O -0.893926 0.186647 -0.160620
O56 O 0.186647 0.893925 0.339375
O57 O -0.893927 -0.186657 -0.160618
O58 O 0.186649 -0.893928 0.339380
O59 O 0.893927 0.186649 -0.160621
O60 O -0.186660 0.893919 0.339381
O61 O -0.893922 0.186654 0.160625
O62 O 0.186650 0.893923 0.660623
O63 O 0.893918 -0.186646 0.160629
O64 O -0.186653 -0.893920 0.660624
Si65 Si 0.873357 0.618559 0.617201
Si66 Si -0.618576 0.873343 1.117220
Si67 Si -0.873351 -0.618563 0.617217
Si68 Si 0.618553 -0.873344 1.117205
Si69 Si 0.873339 -0.618539 -0.617206
Si70 Si -0.618551 -0.873332 -0.117206
Si71 Si -0.873339 0.618560 -0.617215
Si72 Si 0.618535 0.873356 -0.117211
Si73 Si -0.873353 -0.618576 -0.617208
Si74 Si 0.618577 -0.873368 -0.117209
Si75 Si 0.873343 0.618568 -0.617214
Si76 Si -0.618556 0.873343 -0.117208
Si77 Si -0.873343 0.618537 0.617210
Si78 Si 0.618555 0.873339 1.117208
Si79 Si 0.873340 -0.618551 0.617208
Si80 Si -0.618546 -0.873342 1.117216
Si81 Si 0.802560 0.802568 0.250001
Si82 Si -0.802565 0.802553 0.749998
Si83 Si -0.802554 -0.802570 0.250000
Si84 Si 0.802566 -0.802548 0.750006
Si85 Si -0.802560 -0.802563 -0.250001
Si86 Si 0.802559 -0.802552 0.250000
Si87 Si 0.802541 0.802558 -0.249998
Si88 Si -0.802567 0.802560 0.250001
Si89 Si 0.000010 0.124672 0.124272
Si90 Si -0.124665 0.000010 0.624277
Si91 Si 0.000006 -0.124687 0.124289
Si92 Si 0.124682 0.000005 0.624271
Si93 Si -0.000003 -0.124669 -0.124275
Si94 Si -0.124673 0.000003 0.375718
Si95 Si 0.000008 0.124677 -0.124286
Si96 Si 0.124682 -0.000014 0.375713
