# CIF file generated from BEC3.in
data_generated_cif
_audit_creation_method 'Generated by cp2k_to_cif'
_cell_length_a 12.961550
_cell_length_b 12.961550
_cell_length_c 13.171655
_cell_angle_alpha 90.000000
_cell_angle_beta 90.000000
_cell_angle_gamma 90.000000
loop_
_symmetry_equiv_pos_as_xyz
'x, y, z'
loop_
_atom_site_label
_atom_site_type_symbol
_atom_site_fract_x
_atom_site_fract_y
_atom_site_fract_z
O1 O -0.000045 0.632133 0.359034
O2 O -0.632139 -0.000031 0.859053
O3 O 0.000027 -0.632133 0.359072
O4 O 0.632127 0.000050 0.859047
O5 O 0.000025 -0.632133 -0.359073
O6 O -0.632140 -0.000028 0.140946
O7 O -0.000042 0.632133 -0.359034
O8 O 0.632127 0.000051 0.140952
O9 O 0.853754 0.649207 0.500001
O10 O -0.649272 0.853770 0.999998
O11 O -0.853755 -0.649209 0.500005
O12 O 0.649137 -0.853741 0.999994
O13 O 0.854414 -0.648724 -0.499997
O14 O -0.648711 -0.854453 0.000000
O15 O -0.854517 0.648702 -0.499997
O16 O 0.648713 0.854487 -0.000005
O17 O 0.842834 0.500281 0.360234
O18 O -0.500290 0.842832 0.860285
O19 O -0.842842 -0.500250 0.360235
O20 O 0.500246 -0.842843 0.860171
O21 O 0.842834 -0.499721 -0.360237
O22 O -0.499756 -0.842843 0.139823
O23 O -0.842841 0.499753 -0.360236
O24 O 0.499709 0.842833 0.139712
O25 O 0.814451 0.696646 0.693533
O26 O -0.696660 0.814462 1.193546
O27 O -0.814463 -0.696637 0.693527
O28 O 0.696650 -0.814454 1.193540
O29 O 0.814135 -0.695585 -0.693401
O30 O -0.695658 -0.814144 -0.193340
O31 O -0.814157 0.695612 -0.693362
O32 O 0.695508 0.814152 -0.193418
O33 O -0.814458 -0.696649 -0.693535
O34 O 0.696644 -0.814456 -0.193536
O35 O 0.814446 0.696656 -0.693540
O36 O -0.696652 0.814466 -0.193541
O37 O -0.814162 0.695603 0.693353
O38 O 0.695515 0.814150 1.193424
O39 O 0.814139 -0.695577 0.693395
O40 O -0.695662 -0.814142 1.193343
O41 O 0.002393 0.859551 -0.000003
O42 O -0.859545 0.002394 0.500003
O43 O -0.002377 -0.859514 -0.000005
O44 O 0.859551 -0.002390 0.499997
O45 O -0.000014 -0.000004 0.145753
O46 O -0.000001 0.000019 0.645760
O47 O -0.000014 -0.000004 -0.145754
O48 O 0.000000 0.000018 0.354240
O49 O 0.898551 0.177923 0.167790
O50 O -0.177935 0.898551 0.667764
O51 O -0.898562 -0.177933 0.167775
O52 O 0.177923 -0.898565 0.667770
O53 O 0.897430 -0.178382 -0.164195
O54 O -0.178378 -0.897439 0.335807
O55 O -0.897456 0.178339 -0.164201
O56 O 0.178387 0.897441 0.335814
O57 O -0.898567 -0.177931 -0.167771
O58 O 0.177927 -0.898557 0.332223
O59 O 0.898553 0.177922 -0.167788
O60 O -0.177937 0.898545 0.332233
O61 O -0.897454 0.178341 0.164202
O62 O 0.178386 0.897444 0.664184
O63 O 0.897426 -0.178384 0.164198
O64 O -0.178376 -0.897445 0.664189
Si65 Si 0.877245 0.619524 0.618322
Si66 Si -0.619546 0.877264 1.118308
Si67 Si -0.877272 -0.619524 0.618313
Si68 Si 0.619496 -0.877251 1.118334
Si69 Si 0.877407 -0.618866 -0.618273
Si70 Si -0.618897 -0.877419 -0.118295
Si71 Si -0.877446 0.618875 -0.618295
Si72 Si 0.618846 0.877441 -0.118276
Si73 Si -0.877279 -0.619515 -0.618317
Si74 Si 0.619500 -0.877246 -0.118333
Si75 Si 0.877252 0.619515 -0.618322
Si76 Si -0.619555 0.877262 -0.118311
Si77 Si -0.877440 0.618883 0.618294
Si78 Si 0.618839 0.877445 1.118276
Si79 Si 0.877401 -0.618873 0.618271
Si80 Si -0.618892 -0.877423 1.118289
Si81 Si 0.807647 0.807724 0.248958
Si82 Si -0.807728 0.807700 0.748966
Si83 Si -0.807722 -0.807728 0.248990
Si84 Si 0.807725 -0.807677 0.748964
Si85 Si -0.807720 -0.807731 -0.248987
Si86 Si 0.807722 -0.807678 0.251037
Si87 Si 0.807650 0.807725 -0.248959
Si88 Si -0.807729 0.807697 0.251035
Si89 Si -0.000237 0.122965 0.120610
Si90 Si -0.122973 -0.000229 0.620622
Si91 Si 0.000221 -0.122968 0.120617
Si92 Si 0.122981 0.000228 0.620611
Si93 Si 0.000220 -0.122974 -0.120617
Si94 Si -0.122968 -0.000228 0.379383
Si95 Si -0.000237 0.122970 -0.120608
Si96 Si 0.122975 0.000223 0.379387
