# CIF file generated from CHA0.in
data_generated_cif
_audit_creation_method 'Generated by cp2k_to_cif'
_cell_length_a 9.396920
_cell_length_b 9.396920
_cell_length_c 9.396920
_cell_angle_alpha 93.865997
_cell_angle_beta 93.865997
_cell_angle_gamma 93.865997
loop_
_symmetry_equiv_pos_as_xyz
'x, y, z'
loop_
_atom_site_label
_atom_site_type_symbol
_atom_site_fract_x
_atom_site_fract_y
_atom_site_fract_z
O1 O 0.265010 0.735062 -0.000152
O2 O 0.142553 0.857449 0.499984
O3 O 0.247930 0.247913 0.886359
O4 O 0.019264 0.019263 0.312827
Si5 Si 0.102086 0.331404 0.874227
O6 O -0.000026 0.264961 0.735042
O7 O 0.499988 0.142553 0.857444
O8 O 0.886369 0.247974 0.247989
O9 O 0.312832 0.019255 0.019255
Si10 Si 0.874220 0.102126 0.331446
O11 O 0.735037 0.000012 0.264984
O12 O 0.857453 0.500028 0.142561
O13 O 0.247979 0.886369 0.247926
O14 O 0.019234 0.312823 0.019257
Si15 Si 0.331430 0.874210 0.102066
O16 O -0.247910 -0.247928 -0.886356
O17 O -0.019249 -0.019280 -0.312829
Si18 Si -0.331407 -0.102090 -0.874205
O19 O -0.247949 -0.886358 -0.247921
O20 O -0.019237 -0.312835 -0.019278
Si21 Si -0.102108 -0.874250 -0.331407
O22 O -0.886382 -0.248001 -0.248002
O23 O -0.312818 -0.019246 -0.019237
Si24 Si -0.874225 -0.331441 -0.102147
O25 O -0.265017 -0.735045 0.000128
O26 O -0.142549 -0.857452 -0.499986
Si27 Si -0.102064 -0.331400 -0.874220
O28 O 0.000153 -0.264985 -0.735081
O29 O -0.499998 -0.142559 -0.857447
Si30 Si -0.874232 -0.102142 -0.331446
O31 O -0.735018 -0.000113 -0.264949
O32 O -0.857445 -0.500017 -0.142558
Si33 Si -0.331429 -0.874201 -0.102072
Si34 Si 0.331408 0.102075 0.874202
Si35 Si 0.102135 0.874261 0.331403
Si36 Si 0.874212 0.331440 0.102144
