# CIF file generated from CHA1.in
data_generated_cif
_audit_creation_method 'Generated by cp2k_to_cif'
_cell_length_a 9.255966
_cell_length_b 9.255966
_cell_length_c 9.255966
_cell_angle_alpha 93.865997
_cell_angle_beta 93.865997
_cell_angle_gamma 93.865997
loop_
_symmetry_equiv_pos_as_xyz
'x, y, z'
loop_
_atom_site_label
_atom_site_type_symbol
_atom_site_fract_x
_atom_site_fract_y
_atom_site_fract_z
O1 O 0.265100 0.734549 -0.001833
O2 O 0.147881 0.856975 0.500020
O3 O 0.251891 0.253468 0.886559
O4 O 0.022979 0.022948 0.312861
Si5 Si 0.102300 0.331986 0.874009
O6 O -0.001827 0.265135 0.734530
O7 O 0.499986 0.147875 0.856976
O8 O 0.886563 0.251854 0.253467
O9 O 0.312854 0.023009 0.022945
Si10 Si 0.873988 0.102313 0.331958
O11 O 0.734568 -0.001821 0.265131
O12 O 0.856985 0.499966 0.147878
O13 O 0.253485 0.886552 0.251873
O14 O 0.022929 0.312861 0.023010
Si15 Si 0.331989 0.873992 0.102296
O16 O -0.251886 -0.253478 -0.886559
O17 O -0.022982 -0.022948 -0.312857
Si18 Si -0.331775 -0.104669 -0.875279
O19 O -0.253480 -0.886556 -0.251871
O20 O -0.022922 -0.312853 -0.023014
Si21 Si -0.104720 -0.875295 -0.331790
O22 O -0.886562 -0.251872 -0.253458
O23 O -0.312865 -0.023001 -0.022955
Si24 Si -0.875280 -0.331755 -0.104705
O25 O -0.265108 -0.734554 0.001822
O26 O -0.147863 -0.856985 -0.500021
Si27 Si -0.102314 -0.332000 -0.873997
O28 O 0.001832 -0.265137 -0.734527
O29 O -0.499997 -0.147891 -0.856976
Si30 Si -0.873994 -0.102306 -0.331966
O31 O -0.734563 0.001822 -0.265123
O32 O -0.856977 -0.499946 -0.147881
Si33 Si -0.331975 -0.873979 -0.102290
Si34 Si 0.331794 0.104689 0.875272
Si35 Si 0.104702 0.875308 0.331788
Si36 Si 0.875263 0.331739 0.104706
