# CIF file generated from CHA2.in
data_generated_cif
_audit_creation_method 'Generated by cp2k_to_cif'
_cell_length_a 9.115012
_cell_length_b 9.115012
_cell_length_c 9.115012
_cell_angle_alpha 93.865997
_cell_angle_beta 93.865997
_cell_angle_gamma 93.865997
loop_
_symmetry_equiv_pos_as_xyz
'x, y, z'
loop_
_atom_site_label
_atom_site_type_symbol
_atom_site_fract_x
_atom_site_fract_y
_atom_site_fract_z
O1 O 0.262676 0.736287 -0.001314
O2 O 0.152735 0.852463 0.500193
O3 O 0.258485 0.260115 0.890695
O4 O 0.028121 0.028132 0.313963
Si5 Si 0.104636 0.332548 0.875454
O6 O -0.001324 0.262691 0.736268
O7 O 0.500191 0.152729 0.852459
O8 O 0.890718 0.258508 0.260118
O9 O 0.313958 0.028118 0.028136
Si10 Si 0.875455 0.104656 0.332542
O11 O 0.736262 -0.001319 0.262671
O12 O 0.852469 0.500199 0.152736
O13 O 0.260131 0.890718 0.258503
O14 O 0.028125 0.313962 0.028122
Si15 Si 0.332548 0.875466 0.104666
O16 O -0.258494 -0.260112 -0.890700
O17 O -0.028125 -0.028129 -0.313956
Si18 Si -0.332695 -0.107173 -0.876900
O19 O -0.260137 -0.890710 -0.258490
O20 O -0.028137 -0.313962 -0.028118
Si21 Si -0.107181 -0.876887 -0.332688
O22 O -0.890718 -0.258509 -0.260116
O23 O -0.313965 -0.028121 -0.028127
Si24 Si -0.876901 -0.332694 -0.107168
O25 O -0.262680 -0.736281 0.001317
O26 O -0.152734 -0.852463 -0.500204
Si27 Si -0.104649 -0.332543 -0.875454
O28 O 0.001325 -0.262684 -0.736280
O29 O -0.500192 -0.152727 -0.852465
Si30 Si -0.875461 -0.104652 -0.332546
O31 O -0.736261 0.001319 -0.262671
O32 O -0.852463 -0.500185 -0.152740
Si33 Si -0.332548 -0.875462 -0.104654
Si34 Si 0.332693 0.107179 0.876903
Si35 Si 0.107172 0.876896 0.332690
Si36 Si 0.876892 0.332696 0.107170
