# CIF file generated from CHA3.in
data_generated_cif
_audit_creation_method 'Generated by cp2k_to_cif'
_cell_length_a 9.537874
_cell_length_b 9.537874
_cell_length_c 9.537874
_cell_angle_alpha 93.865997
_cell_angle_beta 93.865997
_cell_angle_gamma 93.865997
loop_
_symmetry_equiv_pos_as_xyz
'x, y, z'
loop_
_atom_site_label
_atom_site_type_symbol
_atom_site_fract_x
_atom_site_fract_y
_atom_site_fract_z
O1 O 0.264641 0.734522 0.001468
O2 O 0.141895 0.857901 0.500099
O3 O 0.243041 0.242354 0.886574
O4 O 0.014582 0.014847 0.313960
Si5 Si 0.101194 0.331098 0.873380
O6 O 0.001481 0.264640 0.734541
O7 O 0.500105 0.141902 0.857899
O8 O 0.886566 0.243047 0.242358
O9 O 0.313970 0.014578 0.014844
Si10 Si 0.873379 0.101189 0.331129
O11 O 0.734533 0.001468 0.264631
O12 O 0.857901 0.500109 0.141900
O13 O 0.242380 0.886561 0.243014
O14 O 0.014844 0.313964 0.014586
Si15 Si 0.331129 0.873360 0.101197
O16 O -0.243036 -0.242360 -0.886571
O17 O -0.014592 -0.014843 -0.313962
Si18 Si -0.331480 -0.100338 -0.873239
O19 O -0.242378 -0.886560 -0.243013
O20 O -0.014842 -0.313963 -0.014586
Si21 Si -0.100348 -0.873264 -0.331463
O22 O -0.886570 -0.243048 -0.242359
O23 O -0.313969 -0.014568 -0.014849
Si24 Si -0.873252 -0.331478 -0.100363
O25 O -0.264641 -0.734520 -0.001468
O26 O -0.141897 -0.857902 -0.500094
Si27 Si -0.101191 -0.331097 -0.873377
O28 O -0.001482 -0.264644 -0.734543
O29 O -0.500106 -0.141903 -0.857898
Si30 Si -0.873385 -0.101199 -0.331139
O31 O -0.734532 -0.001467 -0.264624
O32 O -0.857902 -0.500114 -0.141899
Si33 Si -0.331121 -0.873365 -0.101185
Si34 Si 0.331476 0.100327 0.873244
Si35 Si 0.100348 0.873264 0.331460
Si36 Si 0.873255 0.331486 0.100367
