# CIF file generated from FER0.in
data_generated_cif
_audit_creation_method 'Generated by cp2k_to_cif'
_cell_length_a 19.018000
_cell_length_b 14.303000
_cell_length_c 7.541000
_cell_angle_alpha 90.000000
_cell_angle_beta 90.000000
_cell_angle_gamma 90.000000
loop_
_symmetry_equiv_pos_as_xyz
'x, y, z'
loop_
_atom_site_label
_atom_site_type_symbol
_atom_site_fract_x
_atom_site_fract_y
_atom_site_fract_z
O1 O 0.321690 0.090317 0.247027
O2 O -0.323620 -0.090513 0.253214
O3 O 0.321267 -0.091659 -0.253358
O4 O -0.323749 0.090763 -0.252759
O5 O -0.321288 -0.091785 -0.253268
O6 O 0.323636 0.091047 -0.252994
O7 O -0.321458 0.092025 0.252672
O8 O 0.321571 -0.091976 0.253490
O9 O 0.823614 0.590521 0.753221
O10 O 0.178624 0.408232 0.753412
O11 O 0.823733 0.409346 0.247421
O12 O 0.178364 0.590438 0.252924
O13 O 0.178482 0.408185 0.246659
O14 O 0.821284 0.591828 0.246730
O15 O 0.176254 0.590759 0.752727
O16 O 0.821476 0.407942 0.752752
O17 O 0.385595 0.249825 0.323319
O18 O -0.387664 -0.249524 0.321539
O19 O 0.385049 -0.250273 -0.323530
O20 O -0.387605 0.249667 -0.321569
O21 O -0.385065 -0.250323 -0.323326
O22 O 0.387161 0.249745 -0.321661
O23 O -0.385144 0.250447 0.323372
O24 O 0.387299 -0.249703 0.321543
O25 O 0.887643 0.749547 0.821565
O26 O 0.112944 0.249989 0.822248
O27 O 0.887446 0.250440 0.178974
O28 O 0.114710 0.749894 0.176642
O29 O 0.114349 0.250035 0.177467
O30 O 0.885038 0.750351 0.176681
O31 O 0.112302 0.749561 0.821530
O32 O 0.885364 0.249507 0.823828
O33 O 0.343531 0.216978 0.000144
O34 O -0.343414 -0.216671 0.000148
O35 O 0.343583 -0.216691 -0.000294
O36 O -0.343448 0.216824 -0.000186
O37 O 0.843412 0.716674 0.500166
O38 O 0.156576 0.283249 0.500718
O39 O 0.843447 0.283181 0.500060
O40 O 0.156636 0.717022 0.500147
O41 O 0.250253 0.249598 0.252847
O42 O -0.251166 -0.249714 0.253541
O43 O 0.248867 -0.250216 -0.246557
O44 O -0.250983 0.249640 -0.253331
O45 O -0.248853 -0.250271 -0.246489
O46 O 0.250038 0.249679 -0.247193
O47 O -0.248983 0.250362 0.246632
O48 O 0.250326 -0.250737 0.247959
O49 O 0.106249 0.091140 0.002728
O50 O -0.106455 -0.091221 -0.003324
O51 O 0.106399 -0.091437 -0.003379
O52 O -0.106424 0.091167 0.003335
O53 O 0.606453 0.591286 0.496701
O54 O 0.393616 0.408608 0.503353
O55 O 0.606406 0.408890 0.503321
O56 O 0.393743 0.591173 0.497008
O57 O 0.000007 0.209185 0.002715
O58 O -0.000048 -0.209195 0.003787
O59 O 0.499977 0.709236 0.503704
O60 O 0.500018 0.290802 0.496432
O61 O 0.203388 -0.001878 0.177133
O62 O -0.204044 -0.002014 0.176945
O63 O 0.204013 0.002011 -0.176903
O64 O -0.204039 0.002025 -0.176909
O65 O 0.704059 0.502001 0.676925
O66 O 0.295943 0.501978 0.676838
O67 O 0.704015 0.498008 0.323075
O68 O 0.296678 0.498153 0.322763
O69 O 0.250942 0.001831 0.499838
O70 O -0.250901 0.001541 0.499986
O71 O 0.750902 0.498456 0.999990
O72 O 0.249058 0.501830 1.000111
Si73 Si 0.324809 0.201481 0.206477
Si74 Si -0.325852 -0.201368 0.207484
Si75 Si 0.324143 -0.202163 -0.206584
Si76 Si -0.325799 0.201600 -0.207397
Si77 Si -0.324137 -0.202245 -0.206392
Si78 Si 0.325467 0.201793 -0.206686
Si79 Si -0.324254 0.202465 0.206297
Si80 Si 0.325313 -0.202329 0.206662
Si81 Si 0.825841 0.701382 0.707502
Si82 Si 0.175060 0.297623 0.707830
Si83 Si 0.825715 0.298534 0.292960
Si84 Si 0.175486 0.701582 0.293718
Si85 Si 0.175336 0.297898 0.294035
Si86 Si 0.824123 0.702279 0.293634
Si87 Si 0.174136 0.701582 0.707391
Si88 Si 0.824375 0.297462 0.706652
Si89 Si 0.084077 0.200125 0.000863
Si90 Si -0.084110 -0.200153 0.000042
Si91 Si 0.084030 -0.200334 0.000106
Si92 Si -0.084065 0.200098 0.001091
Si93 Si 0.584068 0.700205 0.500018
Si94 Si 0.415944 0.299696 0.500026
Si95 Si 0.584082 0.299946 0.500045
Si96 Si 0.415890 0.700155 0.499957
Si97 Si 0.274426 -0.000385 0.294082
Si98 Si -0.274994 -0.000010 0.294681
Si99 Si 0.274952 0.000715 -0.294719
Si100 Si -0.274980 0.000579 -0.294694
Si101 Si 0.775009 0.499994 0.794689
Si102 Si 0.224996 0.500543 0.794713
Si103 Si 0.774960 0.499488 0.205324
Si104 Si 0.225630 0.499740 0.205894
Si105 Si 0.155687 -0.000074 -0.000294
Si106 Si -0.155920 -0.000004 0.000020
Si107 Si 0.655914 0.500057 0.500029
Si108 Si 0.344314 0.499949 0.500281
