# CIF file generated from FER1.in
data_generated_cif
_audit_creation_method 'Generated by cp2k_to_cif'
_cell_length_a 18.732730
_cell_length_b 14.088455
_cell_length_c 7.427885
_cell_angle_alpha 90.000000
_cell_angle_beta 90.000000
_cell_angle_gamma 90.000000
loop_
_symmetry_equiv_pos_as_xyz
'x, y, z'
loop_
_atom_site_label
_atom_site_type_symbol
_atom_site_fract_x
_atom_site_fract_y
_atom_site_fract_z
O1 O 0.323881 0.090369 0.250732
O2 O -0.323879 -0.090357 0.250751
O3 O 0.323851 -0.090344 -0.250524
O4 O -0.323853 0.090385 -0.250528
O5 O -0.323847 -0.090297 -0.250518
O6 O 0.323849 0.090334 -0.250517
O7 O -0.323881 0.090385 0.250693
O8 O 0.323881 -0.090373 0.250712
O9 O 0.824039 0.590702 0.753681
O10 O 0.175945 0.409292 0.753726
O11 O 0.823928 0.409342 0.246928
O12 O 0.176063 0.590671 0.246902
O13 O 0.176061 0.409329 0.246906
O14 O 0.823950 0.590685 0.246884
O15 O 0.175933 0.590716 0.753754
O16 O 0.824106 0.409262 0.753837
O17 O 0.387363 0.251555 0.320220
O18 O -0.387364 -0.251552 0.320221
O19 O 0.387608 -0.251078 -0.320100
O20 O -0.387597 0.251152 -0.320113
O21 O -0.387613 -0.251000 -0.320056
O22 O 0.387606 0.251064 -0.320078
O23 O -0.387365 0.251563 0.320225
O24 O 0.387367 -0.251551 0.320214
O25 O 0.887598 0.752052 0.818795
O26 O 0.112402 0.247936 0.818800
O27 O 0.887613 0.248017 0.181272
O28 O 0.112382 0.751984 0.181279
O29 O 0.112382 0.248018 0.181285
O30 O 0.887623 0.751987 0.181285
O31 O 0.112401 0.752072 0.818798
O32 O 0.887610 0.247897 0.818797
O33 O 0.345955 0.218606 0.000144
O34 O -0.345954 -0.218588 0.000148
O35 O 0.345955 -0.218614 0.000123
O36 O -0.345954 0.218631 0.000125
O37 O 0.846250 0.717990 0.500137
O38 O 0.153749 0.282015 0.500142
O39 O 0.846254 0.282020 0.500141
O40 O 0.153749 0.717984 0.500137
O41 O 0.249998 0.249884 0.251313
O42 O -0.249998 -0.249876 0.251303
O43 O 0.250127 -0.250024 -0.251297
O44 O -0.250121 0.250040 -0.251292
O45 O -0.250125 -0.249998 -0.251283
O46 O 0.250127 0.250019 -0.251284
O47 O -0.250000 0.249893 0.251320
O48 O 0.250000 -0.249885 0.251310
O49 O 0.100327 0.089488 0.000086
O50 O -0.100340 -0.089502 0.000072
O51 O 0.100317 -0.089478 0.000091
O52 O -0.100291 0.089450 0.000109
O53 O 0.601168 0.589357 0.502549
O54 O 0.398891 0.410693 0.502365
O55 O 0.601052 0.410768 0.502165
O56 O 0.398908 0.589299 0.502304
O57 O -0.000002 0.218555 0.000024
O58 O -0.000004 -0.218552 0.000006
O59 O 0.500015 0.715592 0.497359
O60 O 0.500006 0.284379 0.497383
O61 O 0.201655 -0.000001 0.177926
O62 O -0.201653 0.000003 0.177919
O63 O 0.201615 -0.000005 -0.177697
O64 O -0.201615 0.000025 -0.177697
O65 O 0.702530 0.499707 0.678103
O66 O 0.297494 0.500060 0.678105
O67 O 0.701949 0.500121 0.322518
O68 O 0.298052 0.499991 0.322526
O69 O 0.248355 -0.000009 0.500088
O70 O -0.248354 0.000054 0.500089
O71 O 0.748071 0.500034 1.000573
O72 O 0.251937 0.499992 1.000575
Si73 Si 0.325740 0.202108 0.206555
Si74 Si -0.325738 -0.202094 0.206558
Si75 Si 0.325806 -0.202064 -0.206313
Si76 Si -0.325809 0.202106 -0.206321
Si77 Si -0.325795 -0.202014 -0.206275
Si78 Si 0.325804 0.202054 -0.206290
Si79 Si -0.325744 0.202125 0.206538
Si80 Si 0.325743 -0.202112 0.206537
Si81 Si 0.825810 0.702109 0.706450
Si82 Si 0.174187 0.297892 0.706459
Si83 Si 0.825851 0.297895 0.293826
Si84 Si 0.174149 0.702115 0.293819
Si85 Si 0.174149 0.297885 0.293825
Si86 Si 0.825853 0.702126 0.293815
Si87 Si 0.174183 0.702112 0.706456
Si88 Si 0.825834 0.297877 0.706473
Si89 Si 0.083098 0.200607 0.000068
Si90 Si -0.083089 -0.200616 0.000056
Si91 Si 0.083095 -0.200601 0.000067
Si92 Si -0.083084 0.200584 0.000083
Si93 Si 0.583286 0.700205 0.500208
Si94 Si 0.416720 0.299826 0.500168
Si95 Si 0.583265 0.299877 0.500116
Si96 Si 0.416728 0.700170 0.500143
Si97 Si 0.274191 -0.000004 0.293862
Si98 Si -0.274190 0.000020 0.293863
Si99 Si 0.274144 -0.000005 -0.293646
Si100 Si -0.274145 0.000047 -0.293646
Si101 Si 0.774601 0.499952 0.795212
Si102 Si 0.225423 0.500010 0.795197
Si103 Si 0.774312 0.500026 0.206091
Si104 Si 0.225693 0.499999 0.206096
Si105 Si 0.152503 -0.000000 0.000145
Si106 Si -0.152500 -0.000003 0.000138
Si107 Si 0.653277 0.500007 0.500966
Si108 Si 0.346737 0.500005 0.500952
