# CIF file generated from FER2.in
data_generated_cif
_audit_creation_method 'Generated by cp2k_to_cif'
_cell_length_a 18.447460
_cell_length_b 13.873910
_cell_length_c 7.314770
_cell_angle_alpha 90.000000
_cell_angle_beta 90.000000
_cell_angle_gamma 90.000000
loop_
_symmetry_equiv_pos_as_xyz
'x, y, z'
loop_
_atom_site_label
_atom_site_type_symbol
_atom_site_fract_x
_atom_site_fract_y
_atom_site_fract_z
O1 O 0.330670 0.091525 0.272230
O2 O -0.330108 -0.095128 0.285452
O3 O 0.325927 -0.092761 -0.279887
O4 O -0.329418 0.095330 -0.291324
O5 O -0.322812 -0.083790 -0.249816
O6 O 0.326276 0.086391 -0.253253
O7 O -0.321890 0.084432 0.254826
O8 O 0.325725 -0.087222 0.265756
O9 O 0.814301 0.583917 0.749036
O10 O 0.182714 0.408093 0.790138
O11 O 0.814399 0.416941 0.268346
O12 O 0.186029 0.585140 0.281216
O13 O 0.182236 0.407703 0.203100
O14 O 0.823628 0.594392 0.218491
O15 O 0.175998 0.587811 0.739721
O16 O 0.824448 0.405297 0.769002
O17 O 0.388019 0.264972 0.314561
O18 O -0.383605 -0.272551 0.315753
O19 O 0.387764 -0.261711 -0.313909
O20 O -0.381412 0.273155 -0.316561
O21 O -0.387933 -0.246899 -0.319327
O22 O 0.384517 0.255756 -0.315858
O23 O -0.387786 0.247744 0.317461
O24 O 0.384037 -0.256530 0.315494
O25 O 0.886695 0.739280 0.826159
O26 O 0.110230 0.245906 0.809076
O27 O 0.886921 0.263116 0.171922
O28 O 0.109247 0.735377 0.177362
O29 O 0.114965 0.243217 0.182343
O30 O 0.889501 0.764357 0.192327
O31 O 0.112867 0.756129 0.816364
O32 O 0.891116 0.235725 0.808265
O33 O 0.346817 0.213700 0.001954
O34 O -0.349578 -0.209083 0.003642
O35 O 0.349551 -0.205779 -0.001456
O36 O -0.351812 0.204695 -0.003756
O37 O 0.846471 0.710931 0.499528
O38 O 0.154424 0.306283 0.499166
O39 O 0.845547 0.280433 0.499778
O40 O 0.153086 0.726545 0.499360
O41 O 0.249792 0.243951 0.260255
O42 O -0.247483 -0.243139 0.241277
O43 O 0.250783 -0.252126 -0.242495
O44 O -0.246382 0.243549 -0.231241
O45 O -0.250030 -0.245196 -0.246914
O46 O 0.246954 0.241287 -0.254336
O47 O -0.249856 0.247320 0.239335
O48 O 0.246884 -0.243462 0.236153
O49 O 0.093143 0.086914 -0.008472
O50 O -0.095913 -0.087890 -0.033869
O51 O 0.096706 -0.091889 0.024960
O52 O -0.096147 0.090023 0.035220
O53 O 0.587545 0.587204 0.535211
O54 O 0.417928 0.412195 0.516710
O55 O 0.587442 0.412952 0.464946
O56 O 0.410539 0.587881 0.489565
O57 O 0.000577 0.229264 0.008562
O58 O -0.000184 -0.228448 -0.004920
O59 O 0.500422 0.738373 0.493429
O60 O 0.501839 0.257942 0.510097
O61 O 0.203404 0.009972 0.173448
O62 O -0.202249 -0.020387 0.171565
O63 O 0.200143 -0.008949 -0.174520
O64 O -0.202125 0.020310 -0.172645
O65 O 0.694902 0.479467 0.670750
O66 O 0.303269 0.498326 0.671259
O67 O 0.694223 0.522127 0.328113
O68 O 0.308602 0.482040 0.318495
O69 O 0.239197 0.004927 0.500205
O70 O -0.237674 -0.002127 0.500321
O71 O 0.737538 0.493939 1.001005
O72 O 0.263340 0.523014 0.999150
Si73 Si 0.328330 0.202662 0.212739
Si74 Si -0.327958 -0.204169 0.213541
Si75 Si 0.327396 -0.201992 -0.210679
Si76 Si -0.326951 0.203422 -0.212655
Si77 Si -0.326598 -0.196092 -0.204513
Si78 Si 0.324720 0.199045 -0.206253
Si79 Si -0.326322 0.195889 0.203596
Si80 Si 0.325327 -0.197944 0.205735
Si81 Si 0.822848 0.696353 0.707076
Si82 Si 0.174363 0.300922 0.709857
Si83 Si 0.823092 0.302896 0.294414
Si84 Si 0.175530 0.699819 0.296877
Si85 Si 0.175739 0.301441 0.287942
Si86 Si 0.826987 0.704328 0.288325
Si87 Si 0.174072 0.702383 0.704667
Si88 Si 0.828110 0.293788 0.711017
Si89 Si 0.082505 0.201219 -0.003200
Si90 Si -0.082997 -0.201349 -0.003960
Si91 Si 0.082293 -0.205090 0.005019
Si92 Si -0.081986 0.202607 0.005564
Si93 Si 0.580564 0.700281 0.506153
Si94 Si 0.421700 0.297226 0.505225
Si95 Si 0.581230 0.299366 0.494349
Si96 Si 0.419684 0.702033 0.496317
Si97 Si 0.274314 0.004104 0.300191
Si98 Si -0.272417 -0.007921 0.300133
Si99 Si 0.272245 -0.001628 -0.298182
Si100 Si -0.272499 0.006914 -0.300074
Si101 Si 0.766293 0.490741 0.794515
Si102 Si 0.231477 0.503247 0.796828
Si103 Si 0.766386 0.506995 0.206573
Si104 Si 0.235669 0.499921 0.202398
Si105 Si 0.149276 -0.000701 0.003267
Si106 Si -0.150024 0.000828 0.000041
Si107 Si 0.642140 0.500110 0.499338
Si108 Si 0.358534 0.495951 0.499579
