# CIF file generated from FER3.in
data_generated_cif
_audit_creation_method 'Generated by cp2k_to_cif'
_cell_length_a 19.303270
_cell_length_b 14.517545
_cell_length_c 7.654115
_cell_angle_alpha 90.000000
_cell_angle_beta 90.000000
_cell_angle_gamma 90.000000
loop_
_symmetry_equiv_pos_as_xyz
'x, y, z'
loop_
_atom_site_label
_atom_site_type_symbol
_atom_site_fract_x
_atom_site_fract_y
_atom_site_fract_z
O1 O 0.318738 0.091507 0.252814
O2 O -0.318499 -0.090770 0.252981
O3 O 0.318562 -0.091378 -0.253502
O4 O -0.318769 0.091601 -0.252968
O5 O -0.318946 -0.091605 -0.253721
O6 O 0.319121 0.091845 -0.253253
O7 O -0.318940 0.092267 0.253205
O8 O 0.318853 -0.091796 0.253732
O9 O 0.818977 0.592015 0.753272
O10 O 0.181063 0.407809 0.753287
O11 O 0.818978 0.408457 0.246229
O12 O 0.181056 0.591590 0.246290
O13 O 0.181286 0.408275 0.246982
O14 O 0.818702 0.591768 0.246938
O15 O 0.181509 0.590816 0.753003
O16 O 0.818550 0.408739 0.753314
O17 O 0.384807 0.249288 0.323856
O18 O -0.385191 -0.246821 0.324746
O19 O 0.384426 -0.248625 -0.324862
O20 O -0.384751 0.249291 -0.324577
O21 O -0.384903 -0.249762 -0.323312
O22 O 0.384901 0.249908 -0.323831
O23 O -0.384686 0.250063 0.323504
O24 O 0.384662 -0.249860 0.323428
O25 O 0.884627 0.749916 0.823950
O26 O 0.115346 0.249971 0.823931
O27 O 0.884895 0.250205 0.176331
O28 O 0.115095 0.749759 0.176739
O29 O 0.115427 0.250556 0.175771
O30 O 0.884449 0.749433 0.175869
O31 O 0.114835 0.746878 0.824796
O32 O 0.884601 0.251617 0.824486
O33 O 0.340672 0.213395 -0.000005
O34 O -0.340628 -0.213154 0.000076
O35 O 0.341000 -0.213076 -0.000206
O36 O -0.340876 0.213428 -0.000591
O37 O 0.841044 0.713317 0.499933
O38 O 0.158901 0.286666 0.499915
O39 O 0.840834 0.286891 0.499653
O40 O 0.159383 0.713160 0.500095
O41 O 0.250211 0.249906 0.252493
O42 O -0.250529 -0.250044 0.252793
O43 O 0.249510 -0.249910 -0.247201
O44 O -0.250173 0.249966 -0.252595
O45 O -0.250235 -0.249872 -0.252472
O46 O 0.250239 0.249869 -0.252538
O47 O -0.249741 0.250192 0.247417
O48 O 0.249782 -0.250099 0.247499
O49 O 0.106680 0.091418 0.002722
O50 O -0.106743 -0.091668 0.002643
O51 O 0.107092 -0.092703 -0.003416
O52 O -0.106804 0.092130 -0.003081
O53 O 0.607045 0.592698 0.496536
O54 O 0.393303 0.408234 0.497058
O55 O 0.606728 0.408565 0.502594
O56 O 0.393172 0.592027 0.502757
O57 O 0.000039 0.207632 -0.000205
O58 O -0.000073 -0.207707 0.000009
O59 O 0.499918 0.707769 0.499966
O60 O 0.500048 0.292442 0.499763
O61 O 0.203055 -0.001690 0.175476
O62 O -0.202965 0.001768 0.175495
O63 O 0.203136 0.001606 -0.175674
O64 O -0.203155 -0.001543 -0.175634
O65 O 0.703019 0.501740 0.675445
O66 O 0.297043 0.498278 0.675566
O67 O 0.703175 0.498505 0.324291
O68 O 0.296864 0.501593 0.324429
O69 O 0.250854 0.001259 0.499911
O70 O -0.250845 0.001356 0.499973
O71 O 0.750857 0.501291 0.999915
O72 O 0.249162 0.498642 1.000027
Si73 Si 0.323839 0.201182 0.207479
Si74 Si -0.323810 -0.200379 0.207524
Si75 Si 0.323585 -0.200986 -0.207214
Si76 Si -0.323856 0.201281 -0.207892
Si77 Si -0.323893 -0.201216 -0.207593
Si78 Si 0.323972 0.201460 -0.207628
Si79 Si -0.323850 0.201753 0.206703
Si80 Si 0.323814 -0.201339 0.206956
Si81 Si 0.823854 0.701554 0.707033
Si82 Si 0.176115 0.298303 0.706984
Si83 Si 0.823944 0.298819 0.292182
Si84 Si 0.176124 0.701208 0.292412
Si85 Si 0.176190 0.298673 0.292943
Si86 Si 0.823644 0.701366 0.293006
Si87 Si 0.176208 0.700425 0.707557
Si88 Si 0.823708 0.299140 0.706878
Si89 Si 0.084569 0.200207 0.000276
Si90 Si -0.084593 -0.200400 0.000320
Si91 Si 0.084497 -0.201302 -0.000529
Si92 Si -0.084512 0.200796 -0.000476
Si93 Si 0.584488 0.701316 0.499403
Si94 Si 0.415527 0.299547 0.499544
Si95 Si 0.584557 0.299794 0.499969
Si96 Si 0.415395 0.700724 0.500102
Si97 Si 0.272837 -0.000133 0.294731
Si98 Si -0.272730 0.000970 0.294752
Si99 Si 0.272888 0.000577 -0.294958
Si100 Si -0.272906 -0.000021 -0.294937
Si101 Si 0.772801 0.500653 0.794706
Si102 Si 0.227279 0.499074 0.794819
Si103 Si 0.772923 0.500030 0.205016
Si104 Si 0.227106 0.499989 0.205143
Si105 Si 0.155182 -0.000439 -0.000200
Si106 Si -0.155165 0.000207 -0.000212
Si107 Si 0.655183 0.500471 0.499707
Si108 Si 0.344849 0.500040 0.499869
