# CIF file generated from GIS0.in
data_generated_cif
_audit_creation_method 'Generated by cp2k_to_cif'
_cell_length_a 9.801000
_cell_length_b 9.801000
_cell_length_c 10.158000
_cell_angle_alpha 90.000000
_cell_angle_beta 90.000000
_cell_angle_gamma 90.000000
loop_
_symmetry_equiv_pos_as_xyz
'x, y, z'
loop_
_atom_site_label
_atom_site_type_symbol
_atom_site_fract_x
_atom_site_fract_y
_atom_site_fract_z
O1 O -0.000001 0.563981 0.159659
O2 O 1.000000 0.436020 0.840340
O3 O 0.499999 0.436019 0.659660
O4 O 0.499999 0.563981 0.340340
O5 O 0.686019 0.750001 0.409660
O6 O 0.313980 0.250000 0.590340
O7 O 0.813981 0.250000 0.909660
O8 O 0.186020 0.750001 0.090340
O9 O 0.813979 0.750000 0.090341
O10 O 0.186019 0.250000 0.909660
O11 O 0.686020 0.250000 0.590341
O12 O 0.313980 0.749998 0.409659
O13 O 0.500002 0.063981 0.659660
O14 O 0.499997 0.936019 0.340340
O15 O -0.000000 0.936018 0.159660
O16 O 1.000000 0.063981 0.840340
O17 O 0.249998 0.544741 0.250001
O18 O 0.750002 0.455259 0.750000
O19 O 0.250001 0.455259 0.750001
O20 O 0.749999 0.544740 0.249999
O21 O 0.705259 0.000001 0.499998
O22 O 0.294740 -0.000002 0.500000
O23 O 0.794741 0.000002 -0.000001
O24 O 0.205258 -0.000001 0.000003
O25 O 0.749999 0.044741 0.749999
O26 O 0.249999 0.955259 0.250000
O27 O 0.749999 0.955258 0.249997
O28 O 0.249999 0.044742 0.750003
O29 O 0.205259 0.499999 0.000002
O30 O 0.794740 0.500001 0.000000
O31 O 0.294741 0.500001 0.499997
O32 O 0.705259 0.500000 0.500001
Si33 Si 0.159291 0.590706 0.125001
Si34 Si 0.840708 0.409293 0.874999
Si35 Si 0.340708 0.409291 0.625002
Si36 Si 0.659292 0.590708 0.374999
Si37 Si 0.659291 0.909292 0.375001
Si38 Si 0.340708 0.090708 0.625000
Si39 Si 0.840707 0.090709 0.875000
Si40 Si 0.159293 0.909292 0.125000
Si41 Si 0.340707 0.590707 0.375002
Si42 Si 0.659292 0.409293 0.624999
Si43 Si 0.159293 0.409292 0.875000
Si44 Si 0.840706 0.590707 0.125000
Si45 Si 0.840707 0.909293 0.125001
Si46 Si 0.159292 0.090708 0.874999
Si47 Si 0.659293 0.090707 0.625000
Si48 Si 0.340707 0.909293 0.375001
