# CIF file generated from GIS1.in
data_generated_cif
_audit_creation_method 'Generated by cp2k_to_cif'
_cell_length_a 9.653985
_cell_length_b 9.653985
_cell_length_c 10.005630
_cell_angle_alpha 90.000000
_cell_angle_beta 90.000000
_cell_angle_gamma 90.000000
loop_
_symmetry_equiv_pos_as_xyz
'x, y, z'
loop_
_atom_site_label
_atom_site_type_symbol
_atom_site_fract_x
_atom_site_fract_y
_atom_site_fract_z
O1 O 0.007514 0.561871 0.164578
O2 O 1.007196 0.448611 0.851408
O3 O 0.507612 0.443963 0.668289
O4 O 0.508087 0.567780 0.350839
O5 O 0.697747 0.756863 0.414108
O6 O 0.318949 0.256449 0.595925
O7 O 0.824107 0.255565 0.919799
O8 O 0.191944 0.756725 0.101660
O9 O 0.824140 0.755989 0.101596
O10 O 0.191971 0.256092 0.919541
O11 O 0.694481 0.256989 0.595886
O12 O 0.318497 0.756795 0.414449
O13 O 0.507269 0.067736 0.664504
O14 O 0.507361 0.947147 0.351266
O15 O 0.007427 0.952833 0.163709
O16 O 1.007631 0.062477 0.851467
O17 O 0.258126 0.542430 0.257778
O18 O 0.758310 0.465348 0.758004
O19 O 0.257728 0.465448 0.758368
O20 O 0.758086 0.541175 0.258289
O21 O 0.721237 0.007248 0.507203
O22 O 0.292162 0.006756 0.507664
O23 O 0.790710 0.003200 0.006022
O24 O 0.223808 0.006224 0.007750
O25 O 0.758017 0.046463 0.756934
O26 O 0.258020 0.970620 0.257409
O27 O 0.757987 0.970561 0.257452
O28 O 0.258073 0.046163 0.758132
O29 O 0.221712 0.508215 0.007139
O30 O 0.790901 0.507976 0.007123
O31 O 0.295640 0.508202 0.509019
O32 O 0.720720 0.508398 0.509269
Si33 Si 0.168023 0.594697 0.133198
Si34 Si 0.846855 0.417030 0.884478
Si35 Si 0.347069 0.416593 0.632593
Si36 Si 0.669263 0.595575 0.382823
Si37 Si 0.668758 0.918150 0.382376
Si38 Si 0.346253 0.096086 0.631788
Si39 Si 0.846947 0.094295 0.883640
Si40 Si 0.168080 0.918988 0.132748
Si41 Si 0.346904 0.595691 0.382727
Si42 Si 0.668181 0.417136 0.632631
Si43 Si 0.167737 0.417247 0.884067
Si44 Si 0.846898 0.593856 0.133030
Si45 Si 0.847066 0.918323 0.132399
Si46 Si 0.168163 0.094973 0.883833
Si47 Si 0.668228 0.096490 0.631615
Si48 Si 0.346152 0.918196 0.382859
