# CIF file generated from GIS2.in
data_generated_cif
_audit_creation_method 'Generated by cp2k_to_cif'
_cell_length_a 9.506970
_cell_length_b 9.506970
_cell_length_c 9.853260
_cell_angle_alpha 90.000000
_cell_angle_beta 90.000000
_cell_angle_gamma 90.000000
loop_
_symmetry_equiv_pos_as_xyz
'x, y, z'
loop_
_atom_site_label
_atom_site_type_symbol
_atom_site_fract_x
_atom_site_fract_y
_atom_site_fract_z
O1 O 0.012158 0.540334 0.153694
O2 O 1.016694 0.464239 0.862575
O3 O 0.516433 0.458629 0.670902
O4 O 0.512492 0.539885 0.367723
O5 O 0.680671 0.761610 0.390878
O6 O 0.353049 0.261131 0.561321
O7 O 0.852590 0.265042 0.967279
O8 O 0.181797 0.761486 0.138516
O9 O 0.846609 0.763304 0.134168
O10 O 0.179958 0.261854 0.971248
O11 O 0.680055 0.261011 0.557362
O12 O 0.347008 0.761318 0.392533
O13 O 0.516804 0.063485 0.670786
O14 O 0.514370 0.984421 0.372813
O15 O 0.014511 0.984347 0.155902
O16 O 1.016070 0.063182 0.863034
O17 O 0.257996 0.529982 0.268688
O18 O 0.770287 0.419031 0.759483
O19 O 0.264163 0.414692 0.765100
O20 O 0.763633 0.531458 0.261939
O21 O 0.742066 -0.009319 0.527887
O22 O 0.290316 -0.009433 0.530379
O23 O 0.786593 -0.003504 0.002338
O24 O 0.242693 -0.008700 0.002829
O25 O 0.768765 0.108362 0.763085
O26 O 0.263072 0.992417 0.267195
O27 O 0.763926 0.992664 0.264336
O28 O 0.264286 0.107647 0.765041
O29 O 0.242795 0.531474 0.003448
O30 O 0.785832 0.535430 -0.002948
O31 O 0.290551 0.531727 0.530244
O32 O 0.737895 0.531851 0.524743
Si33 Si 0.173507 0.592838 0.141000
Si34 Si 0.856411 0.419911 0.897642
Si35 Si 0.356854 0.415855 0.631039
Si36 Si 0.672970 0.593176 0.385942
Si37 Si 0.674917 0.930302 0.389061
Si38 Si 0.357121 0.106387 0.631037
Si39 Si 0.856739 0.109057 0.900097
Si40 Si 0.175247 0.930210 0.141302
Si41 Si 0.352360 0.592625 0.389657
Si42 Si 0.675001 0.415983 0.627169
Si43 Si 0.175174 0.416932 0.901577
Si44 Si 0.851948 0.594639 0.136925
Si45 Si 0.853473 0.931855 0.139366
Si46 Si 0.175554 0.106888 0.901702
Si47 Si 0.675931 0.106744 0.628964
Si48 Si 0.354147 0.929882 0.390523
