# CIF file generated from GIS3.in
data_generated_cif
_audit_creation_method 'Generated by cp2k_to_cif'
_cell_length_a 9.948015
_cell_length_b 9.948015
_cell_length_c 10.310300
_cell_angle_alpha 90.000000
_cell_angle_beta 90.000000
_cell_angle_gamma 90.000000
loop_
_symmetry_equiv_pos_as_xyz
'x, y, z'
loop_
_atom_site_label
_atom_site_type_symbol
_atom_site_fract_x
_atom_site_fract_y
_atom_site_fract_z
O1 O -0.007860 0.561190 0.154790
O2 O 0.991818 0.422934 0.829428
O3 O 0.492074 0.422138 0.654806
O4 O 0.492114 0.561158 0.329582
O5 O 0.675970 0.741668 0.404790
O6 O 0.309990 0.241672 0.579326
O7 O 0.810376 0.241668 0.904929
O8 O 0.176121 0.741665 0.079573
O9 O 0.810062 0.741665 0.079340
O10 O 0.173281 0.241668 0.904960
O11 O 0.676011 0.241672 0.579583
O12 O 0.310065 0.741667 0.405047
O13 O 0.492065 0.061199 0.654797
O14 O 0.492108 0.922177 0.329591
O15 O -0.007865 0.922140 0.154788
O16 O 0.991812 0.060396 0.829431
O17 O 0.241819 0.544465 0.242407
O18 O 0.741694 0.438860 0.742409
O19 O 0.241812 0.438705 0.742142
O20 O 0.741827 0.544481 0.242009
O21 O 0.688749 -0.008333 0.492200
O22 O 0.294856 -0.008337 0.492228
O23 O 0.794807 -0.008312 -0.007738
O24 O 0.188755 -0.008321 -0.007835
O25 O 0.741695 0.044472 0.742405
O26 O 0.241819 0.938867 0.242402
O27 O 0.741821 0.938848 0.242009
O28 O 0.241806 0.044634 0.742137
O29 O 0.188755 0.491657 -0.007827
O30 O 0.794804 0.491646 -0.007733
O31 O 0.294865 0.491674 0.492232
O32 O 0.688754 0.491665 0.492198
Si33 Si 0.149758 0.584508 0.117164
Si34 Si 0.834414 0.399069 0.867250
Si35 Si 0.334458 0.398949 0.617169
Si36 Si 0.649730 0.584503 0.367211
Si37 Si 0.649726 0.898832 0.367216
Si38 Si 0.334448 0.084393 0.617165
Si39 Si 0.834404 0.084270 0.867248
Si40 Si 0.149755 0.898827 0.117158
Si41 Si 0.334510 0.584369 0.367272
Si42 Si 0.649690 0.398826 0.617165
Si43 Si 0.149234 0.399045 0.867169
Si44 Si 0.834514 0.584377 0.117145
Si45 Si 0.834512 0.898957 0.117145
Si46 Si 0.149229 0.084293 0.867166
Si47 Si 0.649686 0.084512 0.617163
Si48 Si 0.334499 0.898966 0.367270
