# CIF file generated from HEU0.in
data_generated_cif
_audit_creation_method 'Generated by cp2k_to_cif'
_cell_length_a 17.523000
_cell_length_b 17.644000
_cell_length_c 7.401000
_cell_angle_alpha 90.000000
_cell_angle_beta 116.103994
_cell_angle_gamma 90.000000
loop_
_symmetry_equiv_pos_as_xyz
'x, y, z'
loop_
_atom_site_label
_atom_site_type_symbol
_atom_site_fract_x
_atom_site_fract_y
_atom_site_fract_z
O1 O 0.083215 0.160456 0.071329
O2 O 0.916786 0.839544 0.928674
O3 O 0.916788 0.160456 0.928677
O4 O 0.083213 0.839544 0.071325
O5 O 0.583212 0.660457 0.071324
O6 O 0.416788 0.339543 0.928677
O7 O 0.416787 0.660457 0.928674
O8 O 0.583214 0.339543 0.071330
O9 O 0.238205 0.103476 0.260336
O10 O 0.761796 0.896524 0.739665
O11 O 0.761797 0.103476 0.739666
O12 O 0.238204 0.896524 0.260334
O13 O 0.738202 0.603477 0.260329
O14 O 0.261798 0.396523 0.739672
O15 O 0.261797 0.603477 0.739670
O16 O 0.738204 0.396523 0.260331
O17 O 0.186205 0.156708 0.895019
O18 O 0.813796 0.843293 0.104983
O19 O 0.813798 0.156708 0.104985
O20 O 0.186204 0.843292 0.895016
O21 O 0.686204 0.656708 0.895017
O22 O 0.313797 0.343292 0.104985
O23 O 0.313796 0.656708 0.104983
O24 O 0.686205 0.343292 0.895019
O25 O 0.215299 0.251927 0.200061
O26 O 0.784702 0.748074 0.799942
O27 O 0.784703 0.251926 0.799945
O28 O 0.215298 0.748074 0.200059
O29 O 0.715299 0.751927 0.200060
O30 O 0.284701 0.248073 0.799939
O31 O 0.284701 0.751927 0.799940
O32 O 0.715301 0.248072 0.200066
O33 O 0.122152 0.367363 0.401675
O34 O 0.877848 0.632637 0.598325
O35 O 0.877849 0.367363 0.598328
O36 O 0.122151 0.632637 0.401674
O37 O 0.622153 0.867365 0.401674
O38 O 0.377848 0.132635 0.598329
O39 O 0.377847 0.867364 0.598324
O40 O 0.622153 0.132635 0.401674
O41 O 0.195329 0.500000 0.455310
O42 O 0.804671 0.500000 0.544690
O43 O 0.695329 0.000000 0.455311
O44 O 0.304672 1.000000 0.544690
O45 O 0.270316 0.380947 0.390136
O46 O 0.729685 0.619054 0.609866
O47 O 0.729686 0.380946 0.609868
O48 O 0.270315 0.619054 0.390134
O49 O 0.770314 0.880948 0.390137
O50 O 0.229687 0.119053 0.609865
O51 O 0.229686 0.880947 0.609862
O52 O 0.770315 0.119052 0.390138
O53 O 0.120005 0.229663 0.550462
O54 O 0.879995 0.770336 0.449540
O55 O 0.880000 0.229661 0.449549
O56 O 0.120004 0.770336 0.550458
O57 O 0.620004 0.729665 0.550457
O58 O 0.379999 0.270335 0.449550
O59 O 0.379997 0.729665 0.449542
O60 O 0.620005 0.270334 0.550460
O61 O 0.000001 0.330678 0.500003
O62 O 1.000000 0.669323 0.500000
O63 O 0.500000 0.830677 0.500000
O64 O 0.500001 0.169322 0.500004
O65 O 0.005447 0.267439 0.184567
O66 O 0.994553 0.732561 0.815435
O67 O 0.994554 0.267438 0.815439
O68 O 0.005447 0.732561 0.184564
O69 O 0.505447 0.767439 0.184568
O70 O 0.494554 0.232561 0.815435
O71 O 0.494553 0.767439 0.815432
O72 O 0.505447 0.232561 0.184570
Si73 Si 0.180780 0.168300 0.105392
Si74 Si 0.819221 0.831700 0.894611
Si75 Si 0.819223 0.168300 0.894613
Si76 Si 0.180778 0.831700 0.105388
Si77 Si 0.680780 0.668299 0.105391
Si78 Si 0.319221 0.331701 0.894609
Si79 Si 0.319220 0.668299 0.894608
Si80 Si 0.680782 0.331700 0.105396
Si81 Si 0.212863 0.410761 0.497889
Si82 Si 0.787138 0.589239 0.502112
Si83 Si 0.787139 0.410761 0.502115
Si84 Si 0.212862 0.589239 0.497887
Si85 Si 0.712862 0.910760 0.497888
Si86 Si 0.287138 0.089240 0.502114
Si87 Si 0.287137 0.910760 0.502111
Si88 Si 0.712863 0.089240 0.497889
Si89 Si 0.205121 0.189074 0.714490
Si90 Si 0.794879 0.810927 0.285511
Si91 Si 0.794882 0.189074 0.285516
Si92 Si 0.205120 0.810926 0.714488
Si93 Si 0.705122 0.689072 0.714490
Si94 Si 0.294880 0.310928 0.285513
Si95 Si 0.294878 0.689072 0.285510
Si96 Si 0.705123 0.310927 0.714493
Si97 Si 0.063074 0.298453 0.410232
Si98 Si 0.936926 0.701547 0.589770
Si99 Si 0.936928 0.298453 0.589774
Si100 Si 0.063074 0.701547 0.410229
Si101 Si 0.563074 0.798451 0.410231
Si102 Si 0.436927 0.201548 0.589773
Si103 Si 0.436926 0.798451 0.589768
Si104 Si 0.563075 0.201548 0.410233
Si105 Si 1.000001 0.214575 0.000003
Si106 Si 1.000000 0.785425 -0.000000
Si107 Si 0.500000 0.714574 -0.000000
Si108 Si 0.500001 0.285426 0.000003
