# CIF file generated from HEU1.in
data_generated_cif
_audit_creation_method 'Generated by cp2k_to_cif'
_cell_length_a 17.260155
_cell_length_b 17.379340
_cell_length_c 7.289985
_cell_angle_alpha 90.000000
_cell_angle_beta 116.103999
_cell_angle_gamma 90.000000
loop_
_symmetry_equiv_pos_as_xyz
'x, y, z'
loop_
_atom_site_label
_atom_site_type_symbol
_atom_site_fract_x
_atom_site_fract_y
_atom_site_fract_z
O1 O 0.085229 0.156885 0.089985
O2 O 0.914769 0.843114 0.910010
O3 O 0.914771 0.156886 0.910013
O4 O 0.085228 0.843115 0.089982
O5 O 0.585226 0.656885 0.089982
O6 O 0.414772 0.343115 0.910013
O7 O 0.414770 0.656886 0.910010
O8 O 0.585228 0.343114 0.089983
O9 O 0.244381 0.101097 0.266663
O10 O 0.755617 0.898904 0.733331
O11 O 0.755619 0.101096 0.733336
O12 O 0.244383 0.898902 0.266667
O13 O 0.744381 0.601099 0.266662
O14 O 0.255617 0.398901 0.733333
O15 O 0.255618 0.601097 0.733335
O16 O 0.744382 0.398902 0.266665
O17 O 0.184667 0.156686 0.896899
O18 O 0.815331 0.843314 0.103097
O19 O 0.815334 0.156686 0.103100
O20 O 0.184667 0.843315 0.896900
O21 O 0.684666 0.656686 0.896898
O22 O 0.315332 0.343315 0.103097
O23 O 0.315333 0.656686 0.103099
O24 O 0.684668 0.343315 0.896901
O25 O 0.216472 0.251882 0.209008
O26 O 0.783520 0.748121 0.790980
O27 O 0.783526 0.251881 0.790988
O28 O 0.216469 0.748117 0.209003
O29 O 0.716464 0.751886 0.208997
O30 O 0.283533 0.248115 0.790997
O31 O 0.283523 0.751881 0.790984
O32 O 0.716472 0.248117 0.209008
O33 O 0.119557 0.364395 0.377310
O34 O 0.880440 0.635607 0.622678
O35 O 0.880442 0.364394 0.622686
O36 O 0.119560 0.635607 0.377316
O37 O 0.619560 0.864395 0.377314
O38 O 0.380437 0.135606 0.622673
O39 O 0.380441 0.864395 0.622683
O40 O 0.619564 0.135607 0.377323
O41 O 0.186818 0.500000 0.435298
O42 O 0.813181 0.500000 0.564700
O43 O 0.686818 0.000000 0.435299
O44 O 0.313181 1.000000 0.564699
O45 O 0.274818 0.383476 0.394156
O46 O 0.725181 0.616524 0.605843
O47 O 0.725182 0.383476 0.605843
O48 O 0.274818 0.616523 0.394156
O49 O 0.774817 0.883477 0.394158
O50 O 0.225182 0.116523 0.605841
O51 O 0.225182 0.883477 0.605841
O52 O 0.774819 0.116523 0.394158
O53 O 0.115383 0.229440 0.547768
O54 O 0.884615 0.770562 0.452228
O55 O 0.884618 0.229440 0.452233
O56 O 0.115380 0.770560 0.547766
O57 O 0.615378 0.729441 0.547761
O58 O 0.384619 0.270561 0.452234
O59 O 0.384618 0.729440 0.452234
O60 O 0.615379 0.270560 0.547765
O61 O -0.000001 0.336823 0.499997
O62 O 0.999987 0.663178 0.499952
O63 O 0.499989 0.836823 0.499960
O64 O 0.499992 0.163178 0.499970
O65 O -0.003824 0.264463 0.178345
O66 O 1.003823 0.735536 0.821644
O67 O 1.003824 0.264463 0.821653
O68 O -0.003823 0.735538 0.178338
O69 O 0.496177 0.764463 0.178341
O70 O 0.503822 0.235535 0.821645
O71 O 0.503823 0.764464 0.821645
O72 O 0.496178 0.235537 0.178344
Si73 Si 0.182690 0.166619 0.114167
Si74 Si 0.817308 0.833381 0.885827
Si75 Si 0.817310 0.166619 0.885830
Si76 Si 0.182690 0.833381 0.114169
Si77 Si 0.682689 0.666619 0.114168
Si78 Si 0.317310 0.333382 0.885828
Si79 Si 0.317308 0.666618 0.885827
Si80 Si 0.682692 0.333382 0.114171
Si81 Si 0.209633 0.410932 0.486852
Si82 Si 0.790364 0.589068 0.513142
Si83 Si 0.790366 0.410933 0.513146
Si84 Si 0.209635 0.589067 0.486855
Si85 Si 0.709635 0.910932 0.486854
Si86 Si 0.290362 0.089068 0.513139
Si87 Si 0.290365 0.910932 0.513145
Si88 Si 0.709638 0.089068 0.486859
Si89 Si 0.202335 0.188767 0.711583
Si90 Si 0.797663 0.811234 0.288413
Si91 Si 0.797667 0.188766 0.288417
Si92 Si 0.202331 0.811234 0.711580
Si93 Si 0.702331 0.688765 0.711579
Si94 Si 0.297665 0.311236 0.288415
Si95 Si 0.297664 0.688765 0.288415
Si96 Si 0.702334 0.311236 0.711582
Si97 Si 0.058917 0.298672 0.401609
Si98 Si 0.941081 0.701328 0.598376
Si99 Si 0.941083 0.298672 0.598389
Si100 Si 0.058916 0.701329 0.401600
Si101 Si 0.558916 0.798670 0.401601
Si102 Si 0.441081 0.201330 0.598379
Si103 Si 0.441082 0.798671 0.598380
Si104 Si 0.558918 0.201330 0.401606
Si105 Si 1.000000 0.211050 -0.000001
Si106 Si 0.999999 0.788950 -0.000010
Si107 Si 0.499999 0.711049 -0.000008
Si108 Si 0.500000 0.288950 -0.000006
