# CIF file generated from HEU2.in
data_generated_cif
_audit_creation_method 'Generated by cp2k_to_cif'
_cell_length_a 16.997310
_cell_length_b 17.114680
_cell_length_c 7.178968
_cell_angle_alpha 90.000000
_cell_angle_beta 116.104008
_cell_angle_gamma 90.000000
loop_
_symmetry_equiv_pos_as_xyz
'x, y, z'
loop_
_atom_site_label
_atom_site_type_symbol
_atom_site_fract_x
_atom_site_fract_y
_atom_site_fract_z
O1 O 0.086756 0.154140 0.104592
O2 O 0.913244 0.845860 0.895410
O3 O 0.913248 0.154139 0.895410
O4 O 0.086752 0.845861 0.104590
O5 O 0.586752 0.654140 0.104590
O6 O 0.413248 0.345861 0.895410
O7 O 0.413245 0.654140 0.895410
O8 O 0.586756 0.345860 0.104591
O9 O 0.250364 0.098214 0.268239
O10 O 0.749636 0.901786 0.731761
O11 O 0.749637 0.098214 0.731763
O12 O 0.250363 0.901786 0.268239
O13 O 0.750362 0.598215 0.268237
O14 O 0.249638 0.401786 0.731763
O15 O 0.249636 0.598214 0.731761
O16 O 0.750364 0.401786 0.268238
O17 O 0.182948 0.153969 0.896223
O18 O 0.817052 0.846030 0.103777
O19 O 0.817059 0.153969 0.103783
O20 O 0.182945 0.846031 0.896222
O21 O 0.682941 0.653969 0.896218
O22 O 0.317059 0.346031 0.103783
O23 O 0.317050 0.653970 0.103775
O24 O 0.682949 0.346031 0.896224
O25 O 0.219320 0.251097 0.214816
O26 O 0.780680 0.748903 0.785184
O27 O 0.780683 0.251096 0.785182
O28 O 0.219317 0.748904 0.214820
O29 O 0.719317 0.751097 0.214819
O30 O 0.280683 0.248903 0.785183
O31 O 0.280681 0.751097 0.785181
O32 O 0.719321 0.248903 0.214817
O33 O 0.119306 0.361033 0.361267
O34 O 0.880693 0.638967 0.638734
O35 O 0.880695 0.361033 0.638735
O36 O 0.119304 0.638966 0.361266
O37 O 0.619306 0.861034 0.361266
O38 O 0.380695 0.138966 0.638734
O39 O 0.380694 0.861034 0.638733
O40 O 0.619307 0.138966 0.361267
O41 O 0.180466 0.500000 0.417917
O42 O 0.819534 0.500000 0.582080
O43 O 0.680466 0.000000 0.417918
O44 O 0.319534 1.000000 0.582087
O45 O 0.280668 0.383875 0.407546
O46 O 0.719332 0.616124 0.592454
O47 O 0.719333 0.383875 0.592453
O48 O 0.280666 0.616125 0.407547
O49 O 0.780666 0.883875 0.407548
O50 O 0.219334 0.116126 0.592453
O51 O 0.219333 0.883876 0.592454
O52 O 0.780667 0.116124 0.407547
O53 O 0.109104 0.229324 0.547343
O54 O 0.890897 0.770675 0.452658
O55 O 0.890898 0.229325 0.452662
O56 O 0.109103 0.770676 0.547341
O57 O 0.609102 0.729325 0.547338
O58 O 0.390898 0.270675 0.452663
O59 O 0.390897 0.729325 0.452659
O60 O 0.609103 0.270675 0.547341
O61 O 0.000003 0.343394 0.500011
O62 O 1.000002 0.656606 0.500010
O63 O 0.499999 0.843394 0.499995
O64 O 0.500002 0.156606 0.500005
O65 O -0.010786 0.263802 0.171786
O66 O 1.010785 0.736197 0.828222
O67 O 1.010787 0.263803 0.828225
O68 O -0.010787 0.736198 0.171785
O69 O 0.489214 0.763803 0.171779
O70 O 0.510787 0.236197 0.828221
O71 O 0.510785 0.763802 0.828215
O72 O 0.489215 0.236198 0.171785
Si73 Si 0.184440 0.164494 0.119683
Si74 Si 0.815560 0.835506 0.880317
Si75 Si 0.815564 0.164493 0.880319
Si76 Si 0.184437 0.835507 0.119683
Si77 Si 0.684436 0.664493 0.119681
Si78 Si 0.315564 0.335507 0.880319
Si79 Si 0.315560 0.664493 0.880316
Si80 Si 0.684440 0.335507 0.119683
Si81 Si 0.207864 0.411141 0.481297
Si82 Si 0.792136 0.588859 0.518703
Si83 Si 0.792137 0.411141 0.518704
Si84 Si 0.207862 0.588859 0.481295
Si85 Si 0.707863 0.911141 0.481296
Si86 Si 0.292138 0.088859 0.518705
Si87 Si 0.292137 0.911141 0.518705
Si88 Si 0.707864 0.088860 0.481296
Si89 Si 0.198576 0.188417 0.707168
Si90 Si 0.801425 0.811583 0.292833
Si91 Si 0.801428 0.188416 0.292835
Si92 Si 0.198574 0.811584 0.707167
Si93 Si 0.698573 0.688415 0.707166
Si94 Si 0.301427 0.311585 0.292834
Si95 Si 0.301424 0.688416 0.292833
Si96 Si 0.698576 0.311584 0.707168
Si97 Si 0.055180 0.299693 0.394898
Si98 Si 0.944820 0.700308 0.605109
Si99 Si 0.944821 0.299693 0.605112
Si100 Si 0.055179 0.700307 0.394896
Si101 Si 0.555179 0.799692 0.394891
Si102 Si 0.444821 0.200308 0.605109
Si103 Si 0.444820 0.799692 0.605104
Si104 Si 0.555180 0.200308 0.394896
Si105 Si 1.000001 0.208795 0.000005
Si106 Si 0.999999 0.791205 0.000002
Si107 Si 0.499999 0.708794 -0.000003
Si108 Si 0.500001 0.291206 0.000002
