# CIF file generated from HEU3.in
data_generated_cif
_audit_creation_method 'Generated by cp2k_to_cif'
_cell_length_a 17.785845
_cell_length_b 17.908660
_cell_length_c 7.512015
_cell_angle_alpha 90.000000
_cell_angle_beta 116.103996
_cell_angle_gamma 90.000000
loop_
_symmetry_equiv_pos_as_xyz
'x, y, z'
loop_
_atom_site_label
_atom_site_type_symbol
_atom_site_fract_x
_atom_site_fract_y
_atom_site_fract_z
O1 O 0.080875 0.167175 0.053233
O2 O 0.919125 0.832825 0.946765
O3 O 0.919125 0.167175 0.946766
O4 O 0.080875 0.832825 0.053233
O5 O 0.580875 0.667175 0.053233
O6 O 0.419125 0.332825 0.946766
O7 O 0.419124 0.667175 0.946765
O8 O 0.580875 0.332825 0.053233
O9 O 0.229975 0.105226 0.255739
O10 O 0.770024 0.894774 0.744259
O11 O 0.770024 0.105226 0.744259
O12 O 0.229975 0.894774 0.255739
O13 O 0.729975 0.605226 0.255738
O14 O 0.270024 0.394774 0.744260
O15 O 0.270024 0.605226 0.744259
O16 O 0.729975 0.394774 0.255739
O17 O 0.187131 0.157485 0.893530
O18 O 0.812869 0.842515 0.106469
O19 O 0.812869 0.157485 0.106469
O20 O 0.187131 0.842515 0.893530
O21 O 0.687131 0.657485 0.893529
O22 O 0.312869 0.342515 0.106469
O23 O 0.312869 0.657485 0.106469
O24 O 0.687131 0.342515 0.893529
O25 O 0.215794 0.251668 0.194201
O26 O 0.784206 0.748332 0.805798
O27 O 0.784206 0.251668 0.805798
O28 O 0.215794 0.748332 0.194200
O29 O 0.715794 0.751668 0.194201
O30 O 0.284205 0.248332 0.805798
O31 O 0.284205 0.751668 0.805798
O32 O 0.715794 0.248332 0.194201
O33 O 0.125737 0.369477 0.427536
O34 O 0.874262 0.630523 0.572463
O35 O 0.874263 0.369477 0.572464
O36 O 0.125737 0.630523 0.427535
O37 O 0.625738 0.869477 0.427536
O38 O 0.374262 0.130523 0.572463
O39 O 0.374262 0.869477 0.572463
O40 O 0.625738 0.130523 0.427535
O41 O 0.202459 0.500000 0.470840
O42 O 0.797541 0.500000 0.529160
O43 O 0.702459 0.000000 0.470839
O44 O 0.297541 1.000000 0.529160
O45 O 0.265869 0.378893 0.384752
O46 O 0.734131 0.621107 0.615247
O47 O 0.734131 0.378893 0.615247
O48 O 0.265869 0.621107 0.384751
O49 O 0.765869 0.878893 0.384752
O50 O 0.234131 0.121107 0.615247
O51 O 0.234131 0.878892 0.615247
O52 O 0.765869 0.121107 0.384752
O53 O 0.123754 0.229504 0.549598
O54 O 0.876245 0.770496 0.450401
O55 O 0.876245 0.229505 0.450401
O56 O 0.123754 0.770495 0.549597
O57 O 0.623754 0.729505 0.549597
O58 O 0.376245 0.270495 0.450402
O59 O 0.376245 0.729505 0.450401
O60 O 0.623754 0.270495 0.549598
O61 O -0.000000 0.324011 0.500000
O62 O 1.000000 0.675989 0.499999
O63 O 0.500000 0.824011 0.499999
O64 O 0.500000 0.175989 0.500000
O65 O 0.014727 0.272833 0.189430
O66 O 0.985273 0.727167 0.810569
O67 O 0.985273 0.272833 0.810569
O68 O 0.014727 0.727167 0.189430
O69 O 0.514727 0.772833 0.189430
O70 O 0.485273 0.227167 0.810569
O71 O 0.485273 0.772833 0.810568
O72 O 0.514727 0.227167 0.189431
Si73 Si 0.178786 0.170283 0.098159
Si74 Si 0.821214 0.829717 0.901839
Si75 Si 0.821214 0.170283 0.901839
Si76 Si 0.178786 0.829717 0.098159
Si77 Si 0.678786 0.670283 0.098158
Si78 Si 0.321214 0.329717 0.901840
Si79 Si 0.321214 0.670283 0.901840
Si80 Si 0.678786 0.329717 0.098159
Si81 Si 0.216356 0.410662 0.507251
Si82 Si 0.783644 0.589338 0.492747
Si83 Si 0.783644 0.410662 0.492748
Si84 Si 0.216355 0.589338 0.507250
Si85 Si 0.716355 0.910662 0.507250
Si86 Si 0.283644 0.089338 0.492748
Si87 Si 0.283645 0.910662 0.492749
Si88 Si 0.716355 0.089338 0.507250
Si89 Si 0.206852 0.189320 0.716118
Si90 Si 0.793148 0.810679 0.283880
Si91 Si 0.793148 0.189321 0.283880
Si92 Si 0.206852 0.810679 0.716118
Si93 Si 0.706852 0.689320 0.716118
Si94 Si 0.293148 0.310680 0.283881
Si95 Si 0.293148 0.689320 0.283881
Si96 Si 0.706852 0.310680 0.716118
Si97 Si 0.067006 0.298718 0.418249
Si98 Si 0.932994 0.701282 0.581750
Si99 Si 0.932994 0.298718 0.581750
Si100 Si 0.067006 0.701282 0.418249
Si101 Si 0.567006 0.798718 0.418249
Si102 Si 0.432994 0.201282 0.581750
Si103 Si 0.432994 0.798718 0.581750
Si104 Si 0.567006 0.201282 0.418249
Si105 Si 1.000000 0.220789 -0.000000
Si106 Si 1.000000 0.779211 -0.000001
Si107 Si 0.500000 0.720789 -0.000001
Si108 Si 0.500000 0.279211 -0.000000
