# CIF file generated from JNT0.in
data_generated_cif
_audit_creation_method 'Generated by cp2k_to_cif'
_cell_length_a 8.206500
_cell_length_b 14.136400
_cell_length_c 15.404560
_cell_angle_alpha 90.000000
_cell_angle_beta 119.270000
_cell_angle_gamma 90.000000
loop_
_symmetry_equiv_pos_as_xyz
'x, y, z'
loop_
_atom_site_label
_atom_site_type_symbol
_atom_site_fract_x
_atom_site_fract_y
_atom_site_fract_z
Si1 Si 0.848921 0.675162 0.242271
Si2 Si -0.848919 1.175161 0.257729
Si3 Si -0.848923 -0.675163 -0.242272
Si4 Si 0.848924 -0.175163 0.742271
Si5 Si 0.211634 0.695940 0.610919
Si6 Si -0.211635 1.195939 -0.110920
Si7 Si -0.211633 -0.695941 -0.610919
Si8 Si 0.211635 -0.195940 1.110919
Si9 Si 0.698456 0.948848 0.310727
Si10 Si -0.698456 1.448849 0.189273
Si11 Si -0.698455 -0.948850 -0.310728
Si12 Si 0.698456 -0.448850 0.810727
Si13 Si 0.579639 0.629903 0.420778
Si14 Si -0.579639 1.129902 0.079220
Si15 Si -0.579639 -0.629904 -0.420777
Si16 Si 0.579639 -0.129903 0.920776
Si17 Si 0.856514 0.773539 0.420055
Si18 Si -0.856514 1.273538 0.079944
Si19 Si -0.856513 -0.773542 -0.420056
Si20 Si 0.856513 -0.273540 0.920056
Si21 Si 0.585158 0.828400 0.117648
Si22 Si -0.585158 1.328399 0.382352
Si23 Si -0.585157 -0.828400 -0.117650
Si24 Si 0.585157 -0.328399 0.617648
Si25 Si 0.216538 0.644566 0.235682
Si26 Si -0.216537 1.144564 0.264318
Si27 Si -0.216539 -0.644567 -0.235682
Si28 Si 0.216540 -0.144567 0.735682
Si29 Si 0.707767 0.495846 0.305280
Si30 Si -0.707765 0.995846 0.194716
Si31 Si -0.707767 -0.495847 -0.305278
Si32 Si 0.707769 0.004154 0.805275
O33 O 0.160248 0.596522 0.645931
O34 O -0.160248 1.096522 -0.145931
O35 O -0.160247 -0.596523 -0.645930
O36 O 0.160247 -0.096523 1.145929
O37 O 0.359763 0.675415 0.571848
O38 O -0.359762 1.175415 -0.071850
O39 O -0.359763 -0.675415 -0.571849
O40 O 0.359763 -0.175415 1.071848
O41 O 0.020479 0.744228 0.528610
O42 O -0.020476 1.244229 -0.028609
O43 O -0.020478 -0.744229 -0.528610
O44 O 0.020476 -0.244230 1.028609
O45 O 0.353242 0.628542 0.354165
O46 O -0.353242 1.128542 0.145835
O47 O -0.353242 -0.628542 -0.354166
O48 O 0.353242 -0.128543 0.854165
O49 O 0.308109 0.770888 0.702083
O50 O -0.308106 1.270889 -0.202083
O51 O -0.308105 -0.770889 -0.702083
O52 O 0.308106 -0.270889 1.202083
O53 O 0.664890 0.720912 0.148772
O54 O -0.664889 1.220912 0.351228
O55 O -0.664890 -0.720912 -0.148773
O56 O 0.664890 -0.220913 0.648772
O57 O 0.810462 0.568750 0.267076
O58 O -0.810456 1.068751 0.232922
O59 O -0.810466 -0.568749 -0.267076
O60 O 0.810473 -0.068749 0.767074
O61 O 0.820838 0.886759 0.410277
O62 O -0.820838 1.386759 0.089722
O63 O -0.820841 -0.886762 -0.410279
O64 O 0.820840 -0.386762 0.910278
O65 O 0.667763 0.540779 0.390799
O66 O -0.667765 1.040777 0.109194
O67 O -0.667761 -0.540782 -0.390796
O68 O 0.667759 -0.040784 0.890790
O69 O 0.633699 0.625679 0.536499
O70 O -0.633698 1.125680 -0.036500
O71 O -0.633699 -0.625680 -0.536499
O72 O 0.633699 -0.125679 1.036498
O73 O 0.660581 0.725783 0.398397
O74 O -0.660581 1.225783 0.101603
O75 O -0.660581 -0.725785 -0.398397
O76 O 0.660580 -0.225786 0.898398
O77 O 0.686812 0.896153 0.214339
O78 O -0.686812 1.396153 0.285660
O79 O -0.686811 -0.896154 -0.214341
O80 O 0.686811 -0.396153 0.714340
O81 O 0.009787 0.674280 0.211448
O82 O -0.009784 1.174276 0.288552
O83 O -0.009788 -0.674283 -0.211449
O84 O 0.009792 -0.174288 0.711449
O85 O 0.801600 0.049578 0.327038
O86 O -0.801600 0.549577 0.172962
O87 O -0.801600 -0.049579 -0.327037
O88 O 0.801600 0.450422 0.827038
O89 O 0.487025 0.964289 0.291657
O90 O -0.487026 1.464289 0.208340
O91 O -0.487026 -0.964289 -0.291663
O92 O 0.487026 -0.464289 0.791661
O93 O 0.920709 0.740276 0.340698
O94 O -0.920710 1.240276 0.159302
O95 O -0.920709 -0.740277 -0.340698
O96 O 0.920709 -0.240276 0.840699
