# CIF file generated from JNT1.in
data_generated_cif
_audit_creation_method 'Generated by cp2k_to_cif'
_cell_length_a 8.083403
_cell_length_b 13.924354
_cell_length_c 15.173492
_cell_angle_alpha 90.000000
_cell_angle_beta 119.270000
_cell_angle_gamma 90.000000
loop_
_symmetry_equiv_pos_as_xyz
'x, y, z'
loop_
_atom_site_label
_atom_site_type_symbol
_atom_site_fract_x
_atom_site_fract_y
_atom_site_fract_z
Si1 Si 0.852764 0.681315 0.242215
Si2 Si -0.852762 1.181322 0.257786
Si3 Si -0.852763 -0.681319 -0.242216
Si4 Si 0.852762 -0.181318 0.742215
Si5 Si 0.213143 0.692439 0.612360
Si6 Si -0.213142 1.192441 -0.112360
Si7 Si -0.213141 -0.692442 -0.612358
Si8 Si 0.213131 -0.192424 1.112362
Si9 Si 0.699750 0.954442 0.316347
Si10 Si -0.699749 1.454452 0.183652
Si11 Si -0.699752 -0.954444 -0.316349
Si12 Si 0.699751 -0.454442 0.816349
Si13 Si 0.582665 0.629175 0.421149
Si14 Si -0.582652 1.129178 0.078855
Si15 Si -0.582659 -0.629178 -0.421148
Si16 Si 0.582655 -0.129182 0.921143
Si17 Si 0.858504 0.777203 0.423277
Si18 Si -0.858498 1.277211 0.076722
Si19 Si -0.858496 -0.777206 -0.423277
Si20 Si 0.858512 -0.277206 0.923283
Si21 Si 0.584463 0.834493 0.118443
Si22 Si -0.584470 1.334502 0.381556
Si23 Si -0.584469 -0.834499 -0.118442
Si24 Si 0.584470 -0.334500 0.618443
Si25 Si 0.219504 0.649196 0.234948
Si26 Si -0.219498 1.149185 0.265056
Si27 Si -0.219503 -0.649183 -0.234946
Si28 Si 0.219497 -0.149185 0.734944
Si29 Si 0.714196 0.498469 0.301419
Si30 Si -0.714198 0.998483 0.198580
Si31 Si -0.714192 -0.498476 -0.301417
Si32 Si 0.714190 0.001524 0.801418
O33 O 0.154226 0.595568 0.649968
O34 O -0.154234 1.095569 -0.149971
O35 O -0.154217 -0.595573 -0.649966
O36 O 0.154190 -0.095551 1.149955
O37 O 0.355056 0.666539 0.568594
O38 O -0.355054 1.166542 -0.068593
O39 O -0.355055 -0.666538 -0.568594
O40 O 0.355048 -0.166540 1.068594
O41 O 0.021545 0.744773 0.532577
O42 O -0.021535 1.244775 -0.032574
O43 O -0.021541 -0.744774 -0.532576
O44 O 0.021551 -0.244779 1.032579
O45 O 0.352939 0.625409 0.354025
O46 O -0.352928 1.125407 0.145978
O47 O -0.352933 -0.625406 -0.354025
O48 O 0.352930 -0.125407 0.854021
O49 O 0.322627 0.766665 0.705523
O50 O -0.322634 1.266668 -0.205526
O51 O -0.322631 -0.766668 -0.705522
O52 O 0.322620 -0.266646 1.205531
O53 O 0.659633 0.724590 0.149232
O54 O -0.659636 1.224599 0.350770
O55 O -0.659634 -0.724595 -0.149230
O56 O 0.659635 -0.224597 0.649231
O57 O 0.825931 0.571306 0.266645
O58 O -0.825930 1.071317 0.233361
O59 O -0.825929 -0.571309 -0.266642
O60 O 0.825933 -0.071313 0.766643
O61 O 0.826788 0.892170 0.417262
O62 O -0.826787 1.392179 0.082736
O63 O -0.826786 -0.892173 -0.417265
O64 O 0.826790 -0.392173 0.917266
O65 O 0.674811 0.541712 0.389181
O66 O -0.674818 1.041721 0.110816
O67 O -0.674818 -0.541719 -0.389182
O68 O 0.674816 -0.041720 0.889184
O69 O 0.640776 0.619853 0.538610
O70 O -0.640772 1.119854 -0.038608
O71 O -0.640774 -0.619854 -0.538609
O72 O 0.640772 -0.119876 1.038606
O73 O 0.658433 0.729035 0.399171
O74 O -0.658431 1.229039 0.100823
O75 O -0.658427 -0.729038 -0.399172
O76 O 0.658435 -0.229040 0.899171
O77 O 0.686664 0.900720 0.218312
O78 O -0.686663 1.400724 0.281685
O79 O -0.686661 -0.900721 -0.218314
O80 O 0.686662 -0.400720 0.718314
O81 O 0.012943 0.686232 0.209180
O82 O -0.012963 1.186238 0.290801
O83 O -0.012965 -0.686236 -0.209198
O84 O 0.012953 -0.186234 0.709191
O85 O 0.807416 0.055744 0.333764
O86 O -0.807395 0.555758 0.166238
O87 O -0.807413 -0.055746 -0.333763
O88 O 0.807414 0.444257 0.833765
O89 O 0.485387 0.969897 0.297711
O90 O -0.485390 1.469887 0.202284
O91 O -0.485394 -0.969897 -0.297715
O92 O 0.485397 -0.469897 0.797717
O93 O 0.926483 0.744619 0.343758
O94 O -0.926468 1.244618 0.156239
O95 O -0.926472 -0.744619 -0.343760
O96 O 0.926479 -0.244618 0.843762
