# CIF file generated from JNT2.in
data_generated_cif
_audit_creation_method 'Generated by cp2k_to_cif'
_cell_length_a 7.960305
_cell_length_b 13.712308
_cell_length_c 14.942423
_cell_angle_alpha 90.000000
_cell_angle_beta 119.270000
_cell_angle_gamma 90.000000
loop_
_symmetry_equiv_pos_as_xyz
'x, y, z'
loop_
_atom_site_label
_atom_site_type_symbol
_atom_site_fract_x
_atom_site_fract_y
_atom_site_fract_z
Si1 Si 0.852026 0.685263 0.237193
Si2 Si -0.851996 1.185226 0.262910
Si3 Si -0.852026 -0.685265 -0.237192
Si4 Si 0.852001 -0.185224 0.737095
Si5 Si 0.226842 0.688197 0.617691
Si6 Si -0.226852 1.188205 -0.117685
Si7 Si -0.226839 -0.688198 -0.617690
Si8 Si 0.226847 -0.188202 1.117686
Si9 Si 0.713223 0.961254 0.323826
Si10 Si -0.713239 1.461282 0.176166
Si11 Si -0.713209 -0.961254 -0.323824
Si12 Si 0.713240 -0.461282 0.823834
Si13 Si 0.595981 0.627889 0.426017
Si14 Si -0.595994 1.127893 0.074127
Si15 Si -0.595979 -0.627889 -0.426015
Si16 Si 0.595981 -0.127892 0.925870
Si17 Si 0.858134 0.780168 0.432174
Si18 Si -0.858354 1.280179 0.067952
Si19 Si -0.858129 -0.780170 -0.432172
Si20 Si 0.858346 -0.280178 0.932049
Si21 Si 0.594705 0.846002 0.119316
Si22 Si -0.594671 1.346008 0.380639
Si23 Si -0.594710 -0.846004 -0.119316
Si24 Si 0.594672 -0.346004 0.619363
Si25 Si 0.230528 0.655145 0.238279
Si26 Si -0.230475 1.155134 0.261784
Si27 Si -0.230526 -0.655145 -0.238277
Si28 Si 0.230472 -0.155136 0.738213
Si29 Si 0.717188 0.503046 0.290043
Si30 Si -0.717200 1.002995 0.210004
Si31 Si -0.717187 -0.503047 -0.290042
Si32 Si 0.717209 -0.002993 0.790003
O33 O 0.159300 0.595274 0.659895
O34 O -0.159258 1.095317 -0.159901
O35 O -0.159301 -0.595275 -0.659895
O36 O 0.159261 -0.095313 1.159906
O37 O 0.361455 0.653241 0.570136
O38 O -0.361480 1.153257 -0.070130
O39 O -0.361454 -0.653240 -0.570137
O40 O 0.361474 -0.153256 1.070131
O41 O 0.041508 0.747950 0.537604
O42 O -0.041475 1.247953 -0.037592
O43 O -0.041503 -0.747951 -0.537602
O44 O 0.041470 -0.247953 1.037593
O45 O 0.364840 0.618825 0.355073
O46 O -0.364797 1.118830 0.144967
O47 O -0.364838 -0.618824 -0.355073
O48 O 0.364783 -0.118830 0.855030
O49 O 0.349403 0.763577 0.711844
O50 O -0.349417 1.263580 -0.211857
O51 O -0.349403 -0.763579 -0.711844
O52 O 0.349417 -0.263578 1.211857
O53 O 0.666175 0.732963 0.139613
O54 O -0.666078 1.232968 0.360390
O55 O -0.666174 -0.732965 -0.139613
O56 O 0.666077 -0.232964 0.639614
O57 O 0.826653 0.568613 0.244375
O58 O -0.826595 1.068582 0.255698
O59 O -0.826650 -0.568614 -0.244373
O60 O 0.826613 -0.068581 0.744315
O61 O 0.840198 0.897643 0.426087
O62 O -0.840305 1.397652 0.073924
O63 O -0.840193 -0.897644 -0.426086
O64 O 0.840299 -0.397651 0.926078
O65 O 0.703228 0.557546 0.382863
O66 O -0.703230 1.057404 0.117153
O67 O -0.703229 -0.557549 -0.382862
O68 O 0.703227 -0.057401 0.882851
O69 O 0.648804 0.598437 0.541318
O70 O -0.648898 1.098526 -0.041230
O71 O -0.648804 -0.598435 -0.541316
O72 O 0.648891 -0.098528 1.041228
O73 O 0.661667 0.739677 0.425913
O74 O -0.661586 1.239605 0.074715
O75 O -0.661662 -0.739679 -0.425913
O76 O 0.661557 -0.239603 0.925265
O77 O 0.701605 0.904764 0.225926
O78 O -0.701620 1.404762 0.274038
O79 O -0.701605 -0.904765 -0.225928
O80 O 0.701622 -0.404762 0.725962
O81 O 0.037351 0.705790 0.223930
O82 O -0.037132 1.205758 0.276331
O83 O -0.037350 -0.705791 -0.223928
O84 O 0.037118 -0.205759 0.723658
O85 O 0.823120 0.063743 0.339202
O86 O -0.823117 0.563773 0.160831
O87 O -0.823105 -0.063742 -0.339196
O88 O 0.823119 0.436228 0.839171
O89 O 0.495738 0.978244 0.304453
O90 O -0.495734 1.478271 0.195568
O91 O -0.495723 -0.978241 -0.304452
O92 O 0.495736 -0.478270 0.804431
O93 O 0.890249 0.736548 0.341949
O94 O -0.890566 1.236524 0.158106
O95 O -0.890246 -0.736550 -0.341947
O96 O 0.890570 -0.236525 0.841897
