# CIF file generated from JNT3.in
data_generated_cif
_audit_creation_method 'Generated by cp2k_to_cif'
_cell_length_a 8.329598
_cell_length_b 14.348446
_cell_length_c 15.635628
_cell_angle_alpha 90.000000
_cell_angle_beta 119.270000
_cell_angle_gamma 90.000000
loop_
_symmetry_equiv_pos_as_xyz
'x, y, z'
loop_
_atom_site_label
_atom_site_type_symbol
_atom_site_fract_x
_atom_site_fract_y
_atom_site_fract_z
Si1 Si 0.846339 0.671243 0.242747
Si2 Si -0.846338 1.171245 0.257252
Si3 Si -0.846339 -0.671243 -0.242747
Si4 Si 0.846338 -0.171245 0.742748
Si5 Si 0.210687 0.697183 0.609907
Si6 Si -0.210682 1.197185 -0.109905
Si7 Si -0.210686 -0.697182 -0.609906
Si8 Si 0.210682 -0.197184 1.109905
Si9 Si 0.699947 0.946250 0.306051
Si10 Si -0.699946 1.446249 0.193949
Si11 Si -0.699947 -0.946250 -0.306051
Si12 Si 0.699945 -0.446248 0.806051
Si13 Si 0.579866 0.631536 0.419924
Si14 Si -0.579868 1.131539 0.080076
Si15 Si -0.579866 -0.631535 -0.419924
Si16 Si 0.579867 -0.131537 0.919923
Si17 Si 0.857335 0.771292 0.417967
Si18 Si -0.857334 1.271294 0.082035
Si19 Si -0.857334 -0.771291 -0.417967
Si20 Si 0.857333 -0.271293 0.917965
Si21 Si 0.585777 0.825224 0.117012
Si22 Si -0.585779 1.325225 0.382987
Si23 Si -0.585777 -0.825224 -0.117012
Si24 Si 0.585779 -0.325225 0.617013
Si25 Si 0.213198 0.641695 0.235327
Si26 Si -0.213197 1.141698 0.264674
Si27 Si -0.213199 -0.641694 -0.235328
Si28 Si 0.213198 -0.141696 0.735327
Si29 Si 0.703048 0.495459 0.307969
Si30 Si -0.703051 0.995460 0.192032
Si31 Si -0.703048 -0.495459 -0.307969
Si32 Si 0.703051 0.004540 0.807968
O33 O 0.168361 0.596941 0.645278
O34 O -0.168360 1.096940 -0.145279
O35 O -0.168361 -0.596940 -0.645278
O36 O 0.168360 -0.096939 1.145278
O37 O 0.364335 0.679792 0.575626
O38 O -0.364339 1.179792 -0.075626
O39 O -0.364335 -0.679791 -0.575625
O40 O 0.364339 -0.179792 1.075626
O41 O 0.021007 0.742687 0.525476
O42 O -0.021015 1.242685 -0.025481
O43 O -0.021006 -0.742687 -0.525476
O44 O 0.021014 -0.242685 1.025481
O45 O 0.357429 0.628998 0.351550
O46 O -0.357430 1.128999 0.148450
O47 O -0.357429 -0.628993 -0.351550
O48 O 0.357430 -0.128992 0.851551
O49 O 0.292774 0.772457 0.698893
O50 O -0.292774 1.272455 -0.198891
O51 O -0.292775 -0.772456 -0.698892
O52 O 0.292775 -0.272455 1.198891
O53 O 0.670000 0.720246 0.150083
O54 O -0.670002 1.220245 0.349917
O55 O -0.670001 -0.720246 -0.150083
O56 O 0.670002 -0.220245 0.650083
O57 O 0.799418 0.567823 0.267165
O58 O -0.799415 1.067821 0.232834
O59 O -0.799418 -0.567823 -0.267165
O60 O 0.799415 -0.067820 0.767166
O61 O 0.819502 0.883113 0.403485
O62 O -0.819504 1.383112 0.096514
O63 O -0.819502 -0.883113 -0.403485
O64 O 0.819503 -0.383111 0.903486
O65 O 0.669172 0.542095 0.393556
O66 O -0.669172 1.042095 0.106445
O67 O -0.669174 -0.542095 -0.393556
O68 O 0.669174 -0.042094 0.893556
O69 O 0.625383 0.631215 0.533125
O70 O -0.625382 1.131215 -0.033125
O71 O -0.625383 -0.631215 -0.533125
O72 O 0.625383 -0.131215 1.033126
O73 O 0.664593 0.724741 0.398331
O74 O -0.664588 1.224739 0.101669
O75 O -0.664592 -0.724741 -0.398331
O76 O 0.664586 -0.224738 0.898331
O77 O 0.687606 0.894349 0.210615
O78 O -0.687605 1.394348 0.289386
O79 O -0.687606 -0.894348 -0.210615
O80 O 0.687605 -0.394348 0.710614
O81 O 0.008587 0.665145 0.214996
O82 O -0.008591 1.165146 0.285004
O83 O -0.008587 -0.665145 -0.214997
O84 O 0.008591 -0.165146 0.714997
O85 O 0.801303 0.046229 0.323740
O86 O -0.801305 0.546233 0.176260
O87 O -0.801304 -0.046229 -0.323741
O88 O 0.801306 0.453768 0.823741
O89 O 0.491109 0.963813 0.285975
O90 O -0.491106 1.463813 0.214026
O91 O -0.491108 -0.963813 -0.285975
O92 O 0.491106 -0.463813 0.785974
O93 O 0.918686 0.735304 0.339986
O94 O -0.918685 1.235303 0.160015
O95 O -0.918686 -0.735304 -0.339986
O96 O 0.918685 -0.235303 0.839985
