# CIF file generated from JST0.in
data_generated_cif
_audit_creation_method 'Generated by cp2k_to_cif'
_cell_length_a 14.970000
_cell_length_b 14.970000
_cell_length_c 14.970000
_cell_angle_alpha 90.000000
_cell_angle_beta 90.000000
_cell_angle_gamma 90.000000
loop_
_symmetry_equiv_pos_as_xyz
'x, y, z'
loop_
_atom_site_label
_atom_site_type_symbol
_atom_site_fract_x
_atom_site_fract_y
_atom_site_fract_z
O1 O 0.870127 0.085773 0.964204
O2 O -0.370129 -0.085774 1.464205
O3 O 1.370129 0.414227 -0.964205
O4 O -0.870128 0.585775 -0.464205
O5 O 0.964203 0.870127 0.085771
O6 O 1.464207 -0.370128 -0.085780
O7 O -0.964204 1.370128 0.414227
O8 O -0.464206 -0.870128 0.585777
O9 O 0.085771 0.964203 0.870126
O10 O -0.085773 1.464204 -0.370127
O11 O 0.414225 -0.964205 1.370128
O12 O 0.585777 -0.464206 -0.870128
O13 O -0.870130 -0.085777 -0.964207
O14 O 1.370128 0.085772 -0.464204
O15 O -0.370127 0.585771 0.964203
O16 O 0.870128 0.414225 1.464206
O17 O -0.964206 -0.870128 -0.085778
O18 O -0.464204 1.370128 0.085775
O19 O 0.964205 -0.370128 0.585777
O20 O 1.464205 0.870128 0.414225
O21 O -0.085777 -0.964206 -0.870128
O22 O 0.085771 -0.464204 1.370128
O23 O 0.585774 0.964204 -0.370127
O24 O 0.414229 1.464203 0.870126
O25 O 0.746711 0.024290 0.074569
O26 O -0.246713 -0.024292 0.574570
O27 O 1.246714 0.475707 -0.074571
O28 O -0.746715 0.524292 0.425430
O29 O 0.074570 0.746710 0.024291
O30 O 0.574571 -0.246714 -0.024292
O31 O -0.074570 1.246712 0.475708
O32 O 0.425430 -0.746713 0.524292
O33 O 0.024290 0.074569 0.746710
O34 O -0.024289 0.574568 -0.246710
O35 O 0.475709 -0.074570 1.246712
O36 O 0.524291 0.425431 -0.746712
O37 O -0.746715 -0.024292 -0.074571
O38 O 1.246712 0.024292 0.425430
O39 O -0.246711 0.524291 0.074569
O40 O 0.746714 0.475709 0.574570
O41 O -0.074571 -0.746713 -0.024292
O42 O 0.425429 1.246713 0.024292
O43 O 0.074569 -0.246712 0.524291
O44 O 0.574571 0.746712 0.475708
O45 O -0.024292 -0.074570 -0.746715
O46 O 0.024291 0.425430 1.246712
O47 O 0.524289 0.074569 -0.246710
O48 O 0.475711 0.574569 0.746709
O49 O 0.821203 0.184450 0.102013
O50 O -0.321204 -0.184452 0.602014
O51 O 1.321204 0.315548 -0.102014
O52 O -0.821204 0.684452 0.397985
O53 O 0.102013 0.821204 0.184450
O54 O 0.602017 -0.321204 -0.184453
O55 O -0.102014 1.321204 0.315548
O56 O 0.397984 -0.821205 0.684452
O57 O 0.184449 0.102013 0.821204
O58 O -0.184450 0.602014 -0.321204
O59 O 0.315548 -0.102014 1.321204
O60 O 0.684452 0.397985 -0.821204
O61 O -0.821204 -0.184453 -0.102015
O62 O 1.321204 0.184452 0.397986
O63 O -0.321204 0.684450 0.102014
O64 O 0.821204 0.315549 0.602014
O65 O -0.102016 -0.821204 -0.184452
O66 O 0.397985 1.321205 0.184452
O67 O 0.102015 -0.321204 0.684452
O68 O 0.602015 0.821205 0.315548
O69 O -0.184452 -0.102016 -0.821204
O70 O 0.184451 0.397987 1.321204
O71 O 0.684450 0.102014 -0.321203
O72 O 0.315550 0.602012 0.821203
O73 O 0.945960 0.303641 0.144565
O74 O -0.445960 -0.303641 0.644564
O75 O 1.445960 0.196359 -0.144564
O76 O -0.945961 0.803641 0.355434
O77 O 0.144564 0.945961 0.303641
O78 O 0.644567 -0.445961 -0.303641
O79 O -0.144564 1.445960 0.196359
O80 O 0.355433 -0.945961 0.803641
O81 O 0.303641 0.144563 0.945960
O82 O -0.303641 0.644564 -0.445960
O83 O 0.196359 -0.144564 1.445960
O84 O 0.803641 0.355435 -0.945961
O85 O -0.945960 -0.303641 -0.144565
O86 O 1.445960 0.303641 0.355435
O87 O -0.445961 0.803641 0.144564
O88 O 0.945960 0.196359 0.644564
O89 O -0.144566 -0.945961 -0.303641
O90 O 0.355434 1.445961 0.303641
O91 O 0.144566 -0.445961 0.803641
O92 O 0.644564 0.945960 0.196359
O93 O -0.303641 -0.144566 -0.945960
O94 O 0.303641 0.355436 1.445960
O95 O 0.803641 0.144564 -0.445960
O96 O 0.196359 0.644563 0.945960
Si97 Si 0.837642 0.082670 0.067969
Si98 Si -0.337644 -0.082671 0.567971
Si99 Si 1.337646 0.417328 -0.067971
Si100 Si -0.837646 0.582672 0.432029
Si101 Si 0.067969 0.837642 0.082670
Si102 Si 0.567973 -0.337645 -0.082673
Si103 Si -0.067970 1.337643 0.417329
Si104 Si 0.432028 -0.837644 0.582672
Si105 Si 0.082669 0.067969 0.837641
Si106 Si -0.082669 0.567969 -0.337641
Si107 Si 0.417328 -0.067970 1.337643
Si108 Si 0.582672 0.432029 -0.837643
Si109 Si -0.837645 -0.082673 -0.067973
Si110 Si 1.337644 0.082671 0.432030
Si111 Si -0.337642 0.582670 0.067969
Si112 Si 0.837645 0.417328 0.567971
Si113 Si -0.067972 -0.837644 -0.082673
Si114 Si 0.432030 1.337644 0.082672
Si115 Si 0.067970 -0.337642 0.582672
Si116 Si 0.567971 0.837644 0.417328
Si117 Si -0.082672 -0.067972 -0.837645
Si118 Si 0.082670 0.432030 1.337644
Si119 Si 0.582670 0.067969 -0.337641
Si120 Si 0.417331 0.567969 0.837640
Si121 Si 0.873842 0.274054 0.068700
Si122 Si -0.373841 -0.274055 0.568699
Si123 Si 1.373842 0.225945 -0.068699
Si124 Si -0.873842 0.774055 0.431299
Si125 Si 0.068700 0.873842 0.274054
Si126 Si 0.568702 -0.373842 -0.274056
Si127 Si -0.068700 1.373841 0.225945
Si128 Si 0.431298 -0.873842 0.774056
Si129 Si 0.274052 0.068699 0.873842
Si130 Si -0.274053 0.568700 -0.373842
Si131 Si 0.225945 -0.068699 1.373841
Si132 Si 0.774055 0.431300 -0.873842
Si133 Si -0.873841 -0.274056 -0.068700
Si134 Si 1.373842 0.274055 0.431300
Si135 Si -0.373842 0.774053 0.068700
Si136 Si 0.873841 0.225945 0.568700
Si137 Si -0.068702 -0.873842 -0.274056
Si138 Si 0.431299 1.373842 0.274055
Si139 Si 0.068702 -0.373842 0.774055
Si140 Si 0.568700 0.873841 0.225945
Si141 Si -0.274055 -0.068701 -0.873842
Si142 Si 0.274054 0.431301 1.373842
Si143 Si 0.774053 0.068700 -0.373841
Si144 Si 0.225948 0.568698 0.873841
