# CIF file generated from JST1.in
data_generated_cif
_audit_creation_method 'Generated by cp2k_to_cif'
_cell_length_a 14.745450
_cell_length_b 14.745450
_cell_length_c 14.745450
_cell_angle_alpha 90.000000
_cell_angle_beta 90.000000
_cell_angle_gamma 90.000000
loop_
_symmetry_equiv_pos_as_xyz
'x, y, z'
loop_
_atom_site_label
_atom_site_type_symbol
_atom_site_fract_x
_atom_site_fract_y
_atom_site_fract_z
O1 O 0.871452 0.089416 0.959541
O2 O -0.372137 -0.089741 1.460058
O3 O 1.372262 0.410211 -0.960061
O4 O -0.871986 0.589730 -0.460180
O5 O 0.958937 0.871797 0.089451
O6 O 1.458049 -0.371674 -0.089517
O7 O -0.959477 1.372339 0.410261
O8 O -0.459625 -0.872342 0.589923
O9 O 0.089526 0.958141 0.870262
O10 O -0.089585 1.458161 -0.370339
O11 O 0.410403 -0.958213 1.370364
O12 O 0.589623 -0.458145 -0.870252
O13 O -0.871944 -0.089780 -0.960152
O14 O 1.371795 0.089694 -0.460170
O15 O -0.372295 0.589842 0.960021
O16 O 0.871796 0.410326 1.460207
O17 O -0.959707 -0.872328 -0.089959
O18 O -0.458070 1.371621 0.089507
O19 O 0.958772 -0.372032 0.589551
O20 O 1.458324 0.871728 0.410475
O21 O -0.089612 -0.958364 -0.870881
O22 O 0.089562 -0.458137 1.370283
O23 O 0.589569 0.958108 -0.370101
O24 O 0.410356 1.458182 0.870250
O25 O 0.741042 0.035704 0.070704
O26 O -0.241404 -0.035769 0.570829
O27 O 1.241287 0.464174 -0.070709
O28 O -0.741274 0.535810 0.429196
O29 O 0.070482 0.740908 0.035638
O30 O 0.569833 -0.240829 -0.035548
O31 O -0.070583 1.241130 0.464301
O32 O 0.429355 -0.741138 0.535695
O33 O 0.035634 0.070119 0.740333
O34 O -0.035708 0.570328 -0.240759
O35 O 0.464310 -0.070338 1.240806
O36 O 0.535688 0.429558 -0.740942
O37 O -0.741349 -0.035768 -0.070859
O38 O 1.241213 0.035776 0.429175
O39 O -0.241322 0.535770 0.070662
O40 O 0.741195 0.464239 0.570828
O41 O -0.070710 -0.741320 -0.035712
O42 O 0.429789 1.240954 0.035624
O43 O 0.070361 -0.241074 0.535637
O44 O 0.570141 0.740974 0.464414
O45 O -0.035690 -0.070586 -0.741120
O46 O 0.035637 0.429646 1.240602
O47 O 0.535611 0.070205 -0.240398
O48 O 0.464277 0.570393 0.740904
O49 O 0.822877 0.194405 0.095283
O50 O -0.322922 -0.194605 0.595310
O51 O 1.322873 0.305388 -0.095346
O52 O -0.822838 0.694672 0.404547
O53 O 0.095131 0.823091 0.193948
O54 O 0.594534 -0.323078 -0.193813
O55 O -0.095184 1.323136 0.305930
O56 O 0.404755 -0.823149 0.694148
O57 O 0.193925 0.095016 0.822995
O58 O -0.194157 0.594959 -0.322951
O59 O 0.305763 -0.094960 1.322918
O60 O 0.694279 0.405046 -0.822920
O61 O -0.822851 -0.194668 -0.095482
O62 O 1.322819 0.194631 0.404485
O63 O -0.322917 0.694597 0.095269
O64 O 0.822793 0.305345 0.595487
O65 O -0.095221 -0.823103 -0.194293
O66 O 0.405280 1.323153 0.193822
O67 O 0.094931 -0.323158 0.693912
O68 O 0.594785 0.823114 0.306140
O69 O -0.194139 -0.095090 -0.823034
O70 O 0.194016 0.405027 1.323010
O71 O 0.693935 0.095084 -0.322992
O72 O 0.305675 0.594962 0.822904
O73 O 0.954778 0.309269 0.134549
O74 O -0.454839 -0.309377 0.634653
O75 O 1.454797 0.190663 -0.134545
O76 O -0.954828 0.809362 0.365377
O77 O 0.134532 0.954786 0.309218
O78 O 0.634574 -0.454745 -0.309145
O79 O -0.134560 1.454827 0.190678
O80 O 0.365292 -0.954808 0.809316
O81 O 0.309261 0.134384 0.954837
O82 O -0.309420 0.634368 -0.454832
O83 O 0.190608 -0.134307 1.454868
O84 O 0.809351 0.365546 -0.954842
O85 O -0.954817 -0.309367 -0.134617
O86 O 1.454804 0.309376 0.365407
O87 O -0.454834 0.809329 0.134671
O88 O 0.954815 0.190624 0.634435
O89 O -0.134736 -0.954815 -0.309290
O90 O 0.365370 1.454746 0.309194
O91 O 0.134521 -0.454854 0.809232
O92 O 0.634603 0.954748 0.190818
O93 O -0.309429 -0.134412 -0.954865
O94 O 0.309342 0.365714 1.454838
O95 O 0.809291 0.134308 -0.454854
O96 O 0.190561 0.634200 0.954870
Si97 Si 0.835924 0.090190 0.063759
Si98 Si -0.336237 -0.090360 0.564153
Si99 Si 1.336173 0.409608 -0.064079
Si100 Si -0.836114 0.590421 0.435760
Si101 Si 0.063256 0.836107 0.089688
Si102 Si 0.562506 -0.336098 -0.089577
Si103 Si -0.063531 1.336298 0.410209
Si104 Si 0.436368 -0.836245 0.589880
Si105 Si 0.089720 0.062838 0.835548
Si106 Si -0.090007 0.562894 -0.335769
Si107 Si 0.409911 -0.062951 1.335758
Si108 Si 0.590186 0.437080 -0.835795
Si109 Si -0.836170 -0.090433 -0.064250
Si110 Si 1.336057 0.090406 0.435754
Si111 Si -0.336200 0.590391 0.064028
Si112 Si 0.836032 0.409562 0.564283
Si113 Si -0.063754 -0.836355 -0.090050
Si114 Si 0.437407 1.336194 0.089621
Si115 Si 0.063080 -0.336301 0.589676
Si116 Si 0.562799 0.836208 0.410353
Si117 Si -0.090009 -0.063059 -0.836087
Si118 Si 0.089833 0.437143 1.335705
Si119 Si 0.589758 0.062836 -0.335559
Si120 Si 0.409747 0.562940 0.835763
Si121 Si 0.879242 0.282017 0.059044
Si122 Si -0.379408 -0.282173 0.559040
Si123 Si 1.379299 0.217814 -0.058974
Si124 Si -0.879335 0.782189 0.440967
Si125 Si 0.059078 0.879247 0.281841
Si126 Si 0.558996 -0.379291 -0.281844
Si127 Si -0.059113 1.379267 0.218000
Si128 Si 0.440852 -0.879350 0.782056
Si129 Si 0.281779 0.059039 0.879212
Si130 Si -0.281995 0.559027 -0.379185
Si131 Si 0.217991 -0.058990 1.379183
Si132 Si 0.781989 0.441014 -0.879298
Si133 Si -0.879262 -0.282245 -0.059095
Si134 Si 1.379242 0.282184 0.440923
Si135 Si -0.379442 0.782175 0.059012
Si136 Si 0.879209 0.217805 0.558998
Si137 Si -0.059131 -0.879364 -0.282151
Si138 Si 0.440930 1.379273 0.281879
Si139 Si 0.059057 -0.379312 0.781902
Si140 Si 0.559055 0.879286 0.218119
Si141 Si -0.281997 -0.059092 -0.879212
Si142 Si 0.281898 0.441011 1.379173
Si143 Si 0.781766 0.059051 -0.379172
Si144 Si 0.217956 0.558898 0.879208
