# CIF file generated from JST2.in
data_generated_cif
_audit_creation_method 'Generated by cp2k_to_cif'
_cell_length_a 14.520900
_cell_length_b 14.520900
_cell_length_c 14.520900
_cell_angle_alpha 90.000000
_cell_angle_beta 90.000000
_cell_angle_gamma 90.000000
loop_
_symmetry_equiv_pos_as_xyz
'x, y, z'
loop_
_atom_site_label
_atom_site_type_symbol
_atom_site_fract_x
_atom_site_fract_y
_atom_site_fract_z
O1 O 0.873016 0.094156 0.951977
O2 O -0.373016 -0.094154 1.451984
O3 O 1.373018 0.405845 -0.951976
O4 O -0.873015 0.594159 -0.451988
O5 O 0.951984 0.873012 0.094153
O6 O 1.451980 -0.373017 -0.094159
O7 O -0.951981 1.373019 0.405840
O8 O -0.451984 -0.873015 0.594152
O9 O 0.094153 0.951981 0.873017
O10 O -0.094155 1.451985 -0.373017
O11 O 0.405844 -0.951977 1.373015
O12 O 0.594161 -0.451981 -0.873017
O13 O -0.873018 -0.094158 -0.951988
O14 O 1.373014 0.094159 -0.451985
O15 O -0.373020 0.594151 0.951981
O16 O 0.873017 0.405842 1.451981
O17 O -0.951981 -0.873020 -0.094163
O18 O -0.451992 1.373014 0.094150
O19 O 0.951979 -0.373015 0.594151
O20 O 1.451983 0.873020 0.405843
O21 O -0.094155 -0.951984 -0.873016
O22 O 0.094156 -0.451986 1.373015
O23 O 0.594159 0.951987 -0.373017
O24 O 0.405844 1.451987 0.873015
O25 O 0.734638 0.054239 0.064353
O26 O -0.234641 -0.054239 0.564355
O27 O 1.234643 0.445757 -0.064359
O28 O -0.734637 0.554237 0.435643
O29 O 0.064354 0.734639 0.054236
O30 O 0.564352 -0.234641 -0.054243
O31 O -0.064355 1.234644 0.445757
O32 O 0.435639 -0.734638 0.554239
O33 O 0.054239 0.064355 0.734646
O34 O -0.054247 0.564356 -0.234644
O35 O 0.445765 -0.064352 1.234638
O36 O 0.554241 0.435643 -0.734635
O37 O -0.734640 -0.054243 -0.064355
O38 O 1.234642 0.054242 0.435642
O39 O -0.234648 0.554243 0.064352
O40 O 0.734635 0.445760 0.564354
O41 O -0.064354 -0.734643 -0.054246
O42 O 0.435643 1.234642 0.054242
O43 O 0.064357 -0.234643 0.554240
O44 O 0.564353 0.734645 0.445760
O45 O -0.054246 -0.064356 -0.734644
O46 O 0.054240 0.435647 1.234641
O47 O 0.554249 0.064358 -0.234639
O48 O 0.445765 0.564356 0.734640
O49 O 0.830651 0.209544 0.084560
O50 O -0.330656 -0.209543 0.584561
O51 O 1.330660 0.290455 -0.084563
O52 O -0.830657 0.709538 0.415439
O53 O 0.084557 0.830655 0.209537
O54 O 0.584565 -0.330654 -0.209547
O55 O -0.084566 1.330656 0.290455
O56 O 0.415443 -0.830655 0.709541
O57 O 0.209540 0.084566 0.830653
O58 O -0.209546 0.584565 -0.330662
O59 O 0.290458 -0.084562 1.330653
O60 O 0.709544 0.415439 -0.830660
O61 O -0.830652 -0.209543 -0.084568
O62 O 1.330664 0.209547 0.415439
O63 O -0.330654 0.709550 0.084565
O64 O 0.830657 0.290454 0.584561
O65 O -0.084565 -0.830655 -0.209549
O66 O 0.415440 1.330652 0.209546
O67 O 0.084564 -0.330662 0.709543
O68 O 0.584569 0.830655 0.290450
O69 O -0.209549 -0.084564 -0.830661
O70 O 0.209544 0.415434 1.330653
O71 O 0.709549 0.084565 -0.330655
O72 O 0.290457 0.584556 0.830651
O73 O 0.970283 0.323179 0.116333
O74 O -0.470283 -0.323181 0.616333
O75 O 1.470279 0.176809 -0.116332
O76 O -0.970289 0.823187 0.383661
O77 O 0.116333 0.970281 0.323182
O78 O 0.616336 -0.470284 -0.323185
O79 O -0.116335 1.470294 0.176815
O80 O 0.383665 -0.970276 0.823188
O81 O 0.323187 0.116338 0.970280
O82 O -0.323187 0.616330 -0.470291
O83 O 0.176815 -0.116335 1.470279
O84 O 0.823182 0.383667 -0.970293
O85 O -0.970286 -0.323185 -0.116338
O86 O 1.470282 0.323195 0.383668
O87 O -0.470274 0.823186 0.116330
O88 O 0.970288 0.176815 0.616331
O89 O -0.116336 -0.970288 -0.323184
O90 O 0.383663 1.470274 0.323185
O91 O 0.116327 -0.470283 0.823192
O92 O 0.616335 0.970284 0.176809
O93 O -0.323193 -0.116330 -0.970287
O94 O 0.323188 0.383664 1.470284
O95 O 0.823184 0.116333 -0.470289
O96 O 0.176813 0.616341 0.970271
Si97 Si 0.835705 0.101487 0.057427
Si98 Si -0.335705 -0.101487 0.557429
Si99 Si 1.335705 0.398513 -0.057431
Si100 Si -0.835702 0.601488 0.442568
Si101 Si 0.057431 0.835703 0.101482
Si102 Si 0.557426 -0.335704 -0.101489
Si103 Si -0.057432 1.335706 0.398508
Si104 Si 0.442567 -0.835706 0.601490
Si105 Si 0.101493 0.057427 0.835705
Si106 Si -0.101490 0.557432 -0.335707
Si107 Si 0.398514 -0.057427 1.335701
Si108 Si 0.601488 0.442565 -0.835709
Si109 Si -0.835703 -0.101489 -0.057433
Si110 Si 1.335704 0.101488 0.442570
Si111 Si -0.335704 0.601492 0.057433
Si112 Si 0.835705 0.398511 0.557428
Si113 Si -0.057428 -0.835706 -0.101491
Si114 Si 0.442568 1.335701 0.101488
Si115 Si 0.057433 -0.335705 0.601487
Si116 Si 0.557433 0.835709 0.398504
Si117 Si -0.101491 -0.057435 -0.835711
Si118 Si 0.101487 0.442569 1.335698
Si119 Si 0.601486 0.057438 -0.335703
Si120 Si 0.398508 0.557431 0.835700
Si121 Si 0.890111 0.295291 0.043036
Si122 Si -0.390120 -0.295286 0.543037
Si123 Si 1.390125 0.204713 -0.043043
Si124 Si -0.890121 0.795284 0.456953
Si125 Si 0.043036 0.890117 0.295283
Si126 Si 0.543040 -0.390118 -0.295292
Si127 Si -0.043050 1.390119 0.204708
Si128 Si 0.456960 -0.890118 0.795283
Si129 Si 0.295285 0.043044 0.890118
Si130 Si -0.295289 0.543042 -0.390121
Si131 Si 0.204714 -0.043042 1.390116
Si132 Si 0.795289 0.456958 -0.890127
Si133 Si -0.890118 -0.295284 -0.043048
Si134 Si 1.390126 0.295284 0.456960
Si135 Si -0.390114 0.795291 0.043039
Si136 Si 0.890120 0.204714 0.543037
Si137 Si -0.043039 -0.890118 -0.295292
Si138 Si 0.456961 1.390118 0.295282
Si139 Si 0.043039 -0.390123 0.795286
Si140 Si 0.543047 0.890117 0.204711
Si141 Si -0.295290 -0.043040 -0.890124
Si142 Si 0.295282 0.456954 1.390118
Si143 Si 0.795289 0.043046 -0.390122
Si144 Si 0.204713 0.543042 0.890118
