# CIF file generated from JST3.in
data_generated_cif
_audit_creation_method 'Generated by cp2k_to_cif'
_cell_length_a 15.194550
_cell_length_b 15.194550
_cell_length_c 15.194550
_cell_angle_alpha 90.000000
_cell_angle_beta 90.000000
_cell_angle_gamma 90.000000
loop_
_symmetry_equiv_pos_as_xyz
'x, y, z'
loop_
_atom_site_label
_atom_site_type_symbol
_atom_site_fract_x
_atom_site_fract_y
_atom_site_fract_z
O1 O 0.869970 0.084667 0.967466
O2 O -0.369971 -0.084667 1.467465
O3 O 1.369971 0.415333 -0.967465
O4 O -0.869970 0.584667 -0.467465
O5 O 0.967465 0.869970 0.084667
O6 O 1.467465 -0.369970 -0.084667
O7 O -0.967465 1.369971 0.415333
O8 O -0.467466 -0.869971 0.584667
O9 O 0.084667 0.967466 0.869970
O10 O -0.084667 1.467465 -0.369971
O11 O 0.415333 -0.967466 1.369970
O12 O 0.584667 -0.467466 -0.869970
O13 O -0.869971 -0.084667 -0.967465
O14 O 1.369971 0.084667 -0.467465
O15 O -0.369970 0.584667 0.967466
O16 O 0.869970 0.415333 1.467466
O17 O -0.967465 -0.869970 -0.084667
O18 O -0.467466 1.369971 0.084667
O19 O 0.967466 -0.369971 0.584667
O20 O 1.467466 0.869971 0.415333
O21 O -0.084667 -0.967465 -0.869971
O22 O 0.084667 -0.467466 1.369970
O23 O 0.584667 0.967465 -0.369970
O24 O 0.415333 1.467465 0.869971
O25 O 0.750429 0.017579 0.077717
O26 O -0.250429 -0.017579 0.577718
O27 O 1.250429 0.482421 -0.077718
O28 O -0.750429 0.517579 0.422282
O29 O 0.077718 0.750429 0.017579
O30 O 0.577718 -0.250428 -0.017579
O31 O -0.077718 1.250429 0.482422
O32 O 0.422282 -0.750428 0.517579
O33 O 0.017579 0.077718 0.750429
O34 O -0.017579 0.577718 -0.250429
O35 O 0.482421 -0.077718 1.250428
O36 O 0.517579 0.422282 -0.750429
O37 O -0.750429 -0.017579 -0.077718
O38 O 1.250429 0.017579 0.422282
O39 O -0.250429 0.517579 0.077718
O40 O 0.750429 0.482421 0.577718
O41 O -0.077718 -0.750429 -0.017578
O42 O 0.422282 1.250429 0.017578
O43 O 0.077718 -0.250429 0.517579
O44 O 0.577718 0.750429 0.482421
O45 O -0.017579 -0.077718 -0.750429
O46 O 0.017578 0.422282 1.250428
O47 O 0.517579 0.077718 -0.250429
O48 O 0.482421 0.577718 0.750429
O49 O 0.820766 0.178308 0.103555
O50 O -0.320766 -0.178309 0.603556
O51 O 1.320766 0.321691 -0.103555
O52 O -0.820766 0.678309 0.396445
O53 O 0.103556 0.820765 0.178309
O54 O 0.603555 -0.320766 -0.178309
O55 O -0.103555 1.320766 0.321691
O56 O 0.396445 -0.820766 0.678309
O57 O 0.178309 0.103555 0.820766
O58 O -0.178309 0.603555 -0.320766
O59 O 0.321691 -0.103555 1.320766
O60 O 0.678309 0.396444 -0.820766
O61 O -0.820766 -0.178309 -0.103555
O62 O 1.320766 0.178309 0.396445
O63 O -0.320766 0.678309 0.103555
O64 O 0.820766 0.321691 0.603556
O65 O -0.103555 -0.820766 -0.178309
O66 O 0.396445 1.320766 0.178309
O67 O 0.103555 -0.320766 0.678309
O68 O 0.603555 0.820766 0.321691
O69 O -0.178309 -0.103556 -0.820766
O70 O 0.178309 0.396445 1.320766
O71 O 0.678309 0.103555 -0.320766
O72 O 0.321691 0.603555 0.820766
O73 O 0.939221 0.299854 0.151229
O74 O -0.439221 -0.299854 0.651228
O75 O 1.439221 0.200146 -0.151228
O76 O -0.939221 0.799854 0.348771
O77 O 0.151229 0.939221 0.299854
O78 O 0.651229 -0.439221 -0.299854
O79 O -0.151228 1.439221 0.200146
O80 O 0.348771 -0.939221 0.799854
O81 O 0.299854 0.151229 0.939221
O82 O -0.299854 0.651229 -0.439221
O83 O 0.200146 -0.151229 1.439221
O84 O 0.799854 0.348771 -0.939221
O85 O -0.939221 -0.299854 -0.151229
O86 O 1.439221 0.299854 0.348771
O87 O -0.439221 0.799854 0.151229
O88 O 0.939221 0.200146 0.651229
O89 O -0.151229 -0.939221 -0.299854
O90 O 0.348771 1.439221 0.299854
O91 O 0.151229 -0.439221 0.799854
O92 O 0.651228 0.939221 0.200146
O93 O -0.299854 -0.151229 -0.939221
O94 O 0.299854 0.348771 1.439221
O95 O 0.799854 0.151229 -0.439221
O96 O 0.200146 0.651229 0.939221
Si97 Si 0.838488 0.078072 0.069949
Si98 Si -0.338488 -0.078073 0.569949
Si99 Si 1.338488 0.421927 -0.069949
Si100 Si -0.838487 0.578073 0.430050
Si101 Si 0.069949 0.838488 0.078073
Si102 Si 0.569950 -0.338488 -0.078073
Si103 Si -0.069949 1.338487 0.421927
Si104 Si 0.430050 -0.838488 0.578073
Si105 Si 0.078073 0.069949 0.838488
Si106 Si -0.078073 0.569950 -0.338487
Si107 Si 0.421927 -0.069949 1.338488
Si108 Si 0.578072 0.430051 -0.838488
Si109 Si -0.838487 -0.078073 -0.069950
Si110 Si 1.338487 0.078073 0.430051
Si111 Si -0.338487 0.578073 0.069949
Si112 Si 0.838488 0.421927 0.569949
Si113 Si -0.069949 -0.838487 -0.078073
Si114 Si 0.430050 1.338487 0.078073
Si115 Si 0.069949 -0.338487 0.578073
Si116 Si 0.569949 0.838487 0.421927
Si117 Si -0.078073 -0.069950 -0.838487
Si118 Si 0.078073 0.430051 1.338488
Si119 Si 0.578073 0.069950 -0.338487
Si120 Si 0.421927 0.569950 0.838487
Si121 Si 0.870519 0.269174 0.074314
Si122 Si -0.370519 -0.269175 0.574314
Si123 Si 1.370519 0.230826 -0.074314
Si124 Si -0.870519 0.769174 0.425686
Si125 Si 0.074314 0.870519 0.269174
Si126 Si 0.574314 -0.370519 -0.269174
Si127 Si -0.074314 1.370519 0.230826
Si128 Si 0.425686 -0.870519 0.769174
Si129 Si 0.269174 0.074314 0.870519
Si130 Si -0.269174 0.574314 -0.370519
Si131 Si 0.230826 -0.074314 1.370519
Si132 Si 0.769174 0.425687 -0.870519
Si133 Si -0.870519 -0.269174 -0.074314
Si134 Si 1.370519 0.269174 0.425686
Si135 Si -0.370519 0.769174 0.074314
Si136 Si 0.870519 0.230825 0.574314
Si137 Si -0.074314 -0.870519 -0.269174
Si138 Si 0.425686 1.370519 0.269174
Si139 Si 0.074314 -0.370519 0.769174
Si140 Si 0.574314 0.870519 0.230826
Si141 Si -0.269174 -0.074314 -0.870519
Si142 Si 0.269174 0.425686 1.370519
Si143 Si 0.769174 0.074314 -0.370519
Si144 Si 0.230826 0.574314 0.870519
