# CIF file generated from LTA1.in
data_generated_cif
_audit_creation_method 'Generated by cp2k_to_cif'
_cell_length_a 11.740215
_cell_length_b 11.740215
_cell_length_c 11.740215
_cell_angle_alpha 90.000000
_cell_angle_beta 90.000000
_cell_angle_gamma 90.000000
loop_
_symmetry_equiv_pos_as_xyz
'x, y, z'
loop_
_atom_site_label
_atom_site_type_symbol
_atom_site_fract_x
_atom_site_fract_y
_atom_site_fract_z
O1 O 1.004799 0.203774 0.504990
O2 O 1.006856 0.806818 0.504763
O3 O 0.507020 0.009626 0.204007
O4 O 0.506164 0.003454 0.806533
O5 O 0.203857 0.505916 0.004936
O6 O 0.807609 0.505392 0.003103
O7 O 0.204009 0.004790 0.505489
O8 O 0.807934 0.003128 0.504853
O9 O 1.010433 0.505094 0.807473
O10 O 1.004869 0.504804 0.203465
O11 O 0.507054 0.203739 0.009389
O12 O 0.506729 0.806950 0.001253
O13 O 0.118396 0.118133 0.329848
O14 O 0.894027 0.891278 0.680262
O15 O 0.894274 0.891591 0.329276
O16 O 0.118413 0.118200 0.679975
O17 O 0.891641 0.118649 0.679818
O18 O 0.120015 0.891347 0.329493
O19 O 0.119741 0.891274 0.680348
O20 O 0.891533 0.118633 0.329766
O21 O 0.329408 0.117919 0.118104
O22 O 0.683929 0.894077 0.891800
O23 O 0.329349 0.895753 0.895677
O24 O 0.684467 0.118253 0.118032
O25 O 0.679618 0.891308 0.118604
O26 O 0.333892 0.122529 0.890866
O27 O 0.679835 0.119295 0.891023
O28 O 0.334420 0.890664 0.122386
O29 O 0.118361 0.329858 0.118088
O30 O 0.895528 0.679904 0.891176
O31 O 0.895155 0.329966 0.891708
O32 O 0.118204 0.680110 0.118186
O33 O 0.122110 0.682509 0.890854
O34 O 0.891431 0.329814 0.118562
O35 O 0.891479 0.679885 0.118515
O36 O 0.122451 0.329284 0.891063
O37 O 0.004956 0.311927 0.311922
O38 O 0.008355 0.697079 0.697093
O39 O 0.005377 0.697365 0.312148
O40 O 0.006526 0.311888 0.698581
O41 O 0.312946 0.006663 0.312887
O42 O 0.699904 0.004769 0.697782
O43 O 0.312016 0.005807 0.700240
O44 O 0.700278 0.003714 0.311633
O45 O 0.313336 0.312896 0.007978
O46 O 0.701130 0.700216 0.002284
O47 O 0.700384 0.312027 0.003418
O48 O 0.312675 0.700288 0.006844
Si49 Si 0.005074 0.187201 0.369037
Si50 Si 0.006993 0.822165 0.640711
Si51 Si 0.006927 0.822275 0.368826
Si52 Si 0.005271 0.187383 0.640972
Si53 Si 0.370966 0.006353 0.188623
Si54 Si 0.642196 1.005706 0.822133
Si55 Si 0.370312 1.006912 0.824285
Si56 Si 0.642940 0.005739 0.187121
Si57 Si 0.188617 0.369682 0.005693
Si58 Si 0.824825 0.641357 0.003623
Si59 Si 0.824738 0.369460 0.004080
Si60 Si 0.188556 0.642149 0.005332
Si61 Si 0.188005 0.005063 0.641602
Si62 Si 0.824599 0.004186 0.368955
Si63 Si 0.824521 0.004233 0.640778
Si64 Si 0.187950 0.005176 0.369397
Si65 Si 1.008681 0.369048 0.823099
Si66 Si 0.004999 0.640709 0.187167
Si67 Si 0.005016 0.368885 0.187157
Si68 Si 0.009097 0.641213 0.822435
Si69 Si 0.370967 0.188507 0.006587
Si70 Si 0.642691 0.824064 0.003638
Si71 Si 0.370895 0.824357 0.006595
Si72 Si 0.643055 0.187479 0.005512
