# CIF file generated from LTA2.in
data_generated_cif
_audit_creation_method 'Generated by cp2k_to_cif'
_cell_length_a 11.561430
_cell_length_b 11.561430
_cell_length_c 11.561430
_cell_angle_alpha 90.000000
_cell_angle_beta 90.000000
_cell_angle_gamma 90.000000
loop_
_symmetry_equiv_pos_as_xyz
'x, y, z'
loop_
_atom_site_label
_atom_site_type_symbol
_atom_site_fract_x
_atom_site_fract_y
_atom_site_fract_z
O1 O 1.016388 0.205647 0.513189
O2 O 1.015605 0.825994 0.513662
O3 O 0.513823 0.011738 0.201421
O4 O 0.513490 0.015704 0.825999
O5 O 0.201690 0.514067 0.011938
O6 O 0.821701 0.513442 0.007327
O7 O 0.201779 0.011837 0.513866
O8 O 0.821769 0.007320 0.513464
O9 O 1.015676 0.513693 0.826056
O10 O 1.016286 0.513454 0.201906
O11 O 0.514066 0.201504 0.012008
O12 O 0.513643 0.826065 0.011625
O13 O 0.126678 0.124058 0.330174
O14 O 0.900934 0.899828 0.697527
O15 O 0.901029 0.899464 0.329937
O16 O 0.127221 0.126919 0.696756
O17 O 0.896966 0.129312 0.692742
O18 O 0.131558 0.895114 0.330439
O19 O 0.131404 0.896079 0.697072
O20 O 0.896412 0.128798 0.334603
O21 O 0.330974 0.127271 0.127798
O22 O 0.697225 0.899004 0.897540
O23 O 0.330165 0.900616 0.899547
O24 O 0.696741 0.127176 0.127311
O25 O 0.697041 0.896678 0.127649
O26 O 0.330133 0.130574 0.898351
O27 O 0.697603 0.128331 0.897001
O28 O 0.330440 0.897072 0.128925
O29 O 0.128216 0.330191 0.126178
O30 O 0.900446 0.697636 0.899514
O31 O 0.901210 0.329951 0.899123
O32 O 0.127445 0.697301 0.127151
O33 O 0.129516 0.697602 0.897066
O34 O 0.897925 0.334121 0.127837
O35 O 0.896520 0.693027 0.128617
O36 O 0.132020 0.330631 0.896111
O37 O 0.014985 0.322938 0.322757
O38 O 0.012500 0.701109 0.700996
O39 O 0.012412 0.701010 0.325307
O40 O 0.014154 0.325701 0.701506
O41 O 0.326416 0.013132 0.325837
O42 O 0.701198 0.012202 0.700861
O43 O 0.326091 0.014924 0.701641
O44 O 0.701660 0.011521 0.323989
O45 O 0.326891 0.326427 0.015499
O46 O 0.700975 0.701262 0.011030
O47 O 0.701951 0.324264 0.011801
O48 O 0.325926 0.701476 0.012664
Si49 Si 0.013731 0.194239 0.375114
Si50 Si 0.014951 0.831457 0.652193
Si51 Si 0.014928 0.830944 0.375110
Si52 Si 0.013556 0.195861 0.651285
Si53 Si 0.375355 0.012407 0.195390
Si54 Si 0.651855 1.013620 0.830713
Si55 Si 0.374993 1.015257 0.832002
Si56 Si 0.652189 0.011945 0.194148
Si57 Si 0.196705 0.375595 0.012398
Si58 Si 0.830767 0.651378 0.011987
Si59 Si 0.831249 0.375472 0.011768
Si60 Si 0.195493 0.652574 0.012536
Si61 Si 0.195898 0.012634 0.652359
Si62 Si 0.830813 0.011943 0.375475
Si63 Si 0.831203 0.012493 0.651378
Si64 Si 0.196377 0.011093 0.375421
Si65 Si 1.015591 0.375157 0.831451
Si66 Si 0.013151 0.651677 0.195030
Si67 Si 0.014261 0.375233 0.194166
Si68 Si 0.014278 0.652146 0.831234
Si69 Si 0.375671 0.196022 0.013800
Si70 Si 0.652045 0.831336 0.011908
Si71 Si 0.375215 0.831659 0.013142
Si72 Si 0.652441 0.194444 0.012256
