# CIF file generated from LTA3.in
data_generated_cif
_audit_creation_method 'Generated by cp2k_to_cif'
_cell_length_a 12.097785
_cell_length_b 12.097785
_cell_length_c 12.097785
_cell_angle_alpha 90.000000
_cell_angle_beta 90.000000
_cell_angle_gamma 90.000000
loop_
_symmetry_equiv_pos_as_xyz
'x, y, z'
loop_
_atom_site_label
_atom_site_type_symbol
_atom_site_fract_x
_atom_site_fract_y
_atom_site_fract_z
O1 O 0.993306 0.212073 0.493465
O2 O 0.993141 0.774702 0.493562
O3 O 0.493307 -0.006801 0.211866
O4 O 0.493353 -0.006349 0.774797
O5 O 0.212156 0.493340 -0.006212
O6 O 0.774726 0.493471 -0.006824
O7 O 0.212098 -0.006593 0.493383
O8 O 0.774729 -0.006726 0.493552
O9 O 0.992757 0.493536 0.774640
O10 O 0.993418 0.493309 0.212045
O11 O 0.493269 0.211827 -0.006860
O12 O 0.493332 0.774801 -0.006243
O13 O 0.103939 0.104004 0.336461
O14 O 0.883698 0.883850 0.651425
O15 O 0.882660 0.882681 0.336469
O16 O 0.103937 0.103989 0.650292
O17 O 0.882551 0.104444 0.650690
O18 O 0.103907 0.882756 0.336644
O19 O 0.104296 0.882634 0.650419
O20 O 0.882680 0.103915 0.336544
O21 O 0.335892 0.104498 0.104424
O22 O 0.650405 0.882373 0.882403
O23 O 0.336225 0.882346 0.882377
O24 O 0.650610 0.104403 0.104406
O25 O 0.651316 0.883780 0.103083
O26 O 0.335326 0.102977 0.883724
O27 O 0.651290 0.103048 0.883764
O28 O 0.335306 0.883869 0.103011
O29 O 0.104307 0.335557 0.104874
O30 O 0.883594 0.651460 0.883833
O31 O 0.881786 0.335620 0.882356
O32 O 0.103924 0.650359 0.104047
O33 O 0.104243 0.650167 0.882701
O34 O 0.882836 0.336675 0.103802
O35 O 0.882611 0.650462 0.104357
O36 O 0.101265 0.337584 0.885412
O37 O -0.006971 0.286772 0.286916
O38 O -0.006719 0.699878 0.699897
O39 O -0.006563 0.699919 0.286941
O40 O -0.006246 0.286973 0.700098
O41 O 0.286811 -0.006718 0.286878
O42 O 0.699815 -0.006585 0.699879
O43 O 0.286886 -0.006505 0.699879
O44 O 0.699854 -0.006727 0.286928
O45 O 0.286624 0.286892 -0.007123
O46 O 0.699823 0.699839 -0.006456
O47 O 0.699707 0.286853 -0.006496
O48 O 0.286867 0.699868 -0.006414
Si49 Si -0.006722 0.176464 0.363336
Si50 Si -0.006497 0.810413 0.623712
Si51 Si -0.006704 0.810227 0.363393
Si52 Si -0.006655 0.176602 0.623632
Si53 Si 0.363018 -0.006339 0.176407
Si54 Si 0.623586 0.993244 0.810365
Si55 Si 0.363114 0.993181 0.810324
Si56 Si 0.623590 -0.006379 0.176438
Si57 Si 0.176245 0.363328 -0.005758
Si58 Si 0.810315 0.623647 -0.006326
Si59 Si 0.810071 0.363188 -0.006721
Si60 Si 0.176516 0.623463 -0.006496
Si61 Si 0.176514 -0.006609 0.623502
Si62 Si 0.810189 -0.006694 0.363347
Si63 Si 0.810340 -0.006314 0.623737
Si64 Si 0.176442 -0.006607 0.363297
Si65 Si 0.992429 0.363454 0.810454
Si66 Si -0.006658 0.623488 0.176596
Si67 Si -0.006611 0.363133 0.176596
Si68 Si -0.006587 0.623674 0.810426
Si69 Si 0.362959 0.176438 -0.006495
Si70 Si 0.623582 0.810370 -0.006701
Si71 Si 0.363081 0.810368 -0.006725
Si72 Si 0.623537 0.176381 -0.006406
