# CIF file generated from LTL2.in
data_generated_cif
_audit_creation_method 'Generated by cp2k_to_cif'
_cell_length_a 17.582220
_cell_length_b 17.582220
_cell_length_c 7.339990
_cell_angle_alpha 90.000000
_cell_angle_beta 90.000000
_cell_angle_gamma 120.000000
loop_
_symmetry_equiv_pos_as_xyz
'x, y, z'
loop_
_atom_site_label
_atom_site_type_symbol
_atom_site_fract_x
_atom_site_fract_y
_atom_site_fract_z
O1 O 0.273825 0.547632 0.234072
O2 O 0.757103 0.483295 0.796855
O3 O 0.483231 0.757128 0.234187
O4 O 0.547700 0.273802 0.796740
O5 O 0.273878 0.757122 0.234195
O6 O 0.757048 0.273807 0.796733
O7 O 0.757109 0.483307 0.234066
O8 O 0.273824 0.547630 0.796862
O9 O 0.547624 0.273774 0.234207
O10 O 0.483304 0.757154 0.796722
O11 O 0.757099 0.273773 0.234214
O12 O 0.273830 0.757152 0.796715
O13 O 0.111526 0.427729 0.333484
O14 O 0.919401 0.603200 0.697442
O15 O 0.603188 0.714719 0.333450
O16 O 0.427742 0.316210 0.697479
O17 O 0.316285 0.919508 0.333428
O18 O 0.714644 0.111421 0.697500
O19 O 0.919419 0.603196 0.333446
O20 O 0.111515 0.427733 0.697479
O21 O 0.427711 0.316235 0.333440
O22 O 0.603216 0.714692 0.697489
O23 O 0.714623 0.111382 0.333415
O24 O 0.316301 0.919540 0.697513
O25 O 0.427713 0.111422 0.697507
O26 O 0.603217 0.919507 0.333423
O27 O 0.714709 0.603203 0.697449
O28 O 0.316220 0.427725 0.333476
O29 O 0.919406 0.316214 0.697480
O30 O 0.111520 0.714712 0.333446
O31 O 0.603228 0.919536 0.697521
O32 O 0.427699 0.111392 0.333409
O33 O 0.316232 0.427728 0.697481
O34 O 0.714693 0.603202 0.333444
O35 O 0.111459 0.714683 0.697494
O36 O 0.919470 0.316247 0.333431
O37 O 0.152011 0.591476 0.277463
O38 O 0.878917 0.439452 0.753463
O39 O 0.439479 0.591487 0.277455
O40 O 0.591449 0.439441 0.753472
O41 O 0.439491 0.878996 0.277505
O42 O 0.591437 0.151932 0.753423
O43 O 0.878914 0.439446 0.277457
O44 O 0.152012 0.591481 0.753471
O45 O 0.591447 0.439439 0.277450
O46 O 0.439481 0.591490 0.753477
O47 O 0.591450 0.151956 0.277502
O48 O 0.439477 0.878971 0.753426
O49 O 0.140710 0.489278 0.000008
O50 O 0.890219 0.541648 -0.000010
O51 O 0.541640 0.682478 0.000010
O52 O 0.489288 0.348449 -0.000010
O53 O 0.348537 0.890170 0.000013
O54 O 0.682391 0.140757 -0.000013
O55 O 0.489298 0.140731 -0.000011
O56 O 0.541629 0.890198 0.000012
O57 O 0.682333 0.541660 -0.000009
O58 O 0.348594 0.489269 0.000006
O59 O 0.890117 0.348485 -0.000012
O60 O 0.140811 0.682444 0.000010
O61 O -0.000002 0.286521 0.515524
O62 O 1.030930 0.744408 0.515398
O63 O 0.744405 0.744406 0.515429
O64 O 0.286523 0.286523 0.515517
O65 O 0.286501 1.030943 0.515465
O66 O 0.744427 1.030912 0.515488
O67 O 0.166843 0.333680 0.515541
O68 O 0.864084 0.697247 0.515372
O69 O 0.697166 0.864071 0.515507
O70 O 0.333762 0.166857 0.515434
O71 O 0.166907 0.864073 0.515494
O72 O 0.864021 0.166855 0.515423
Si73 Si 0.169736 0.513856 0.210965
Si74 Si 0.861192 0.517071 0.819961
Si75 Si 0.517056 0.686865 0.210973
Si76 Si 0.513873 0.344063 0.819955
Si77 Si 0.344134 0.861217 0.211012
Si78 Si 0.686794 0.169712 0.819917
Si79 Si 0.861197 0.517070 0.210944
Si80 Si 0.169733 0.513859 0.819982
Si81 Si 0.513839 0.344074 0.210983
Si82 Si 0.517089 0.686854 0.819945
Si83 Si 0.686792 0.169689 0.210995
Si84 Si 0.344135 0.861236 0.819934
Si85 Si 0.513863 0.169698 0.819912
Si86 Si 0.517066 0.861232 0.211017
Si87 Si 0.686775 0.517064 0.819952
Si88 Si 0.344154 0.513864 0.210974
Si89 Si 0.861139 0.344090 0.819928
Si90 Si 0.169788 0.686837 0.210998
Si91 Si 0.517080 0.861248 0.819926
Si92 Si 0.513848 0.169680 0.211004
Si93 Si 0.344157 0.513865 0.819969
Si94 Si 0.686770 0.517066 0.210956
Si95 Si 0.169743 0.686828 0.819921
Si96 Si 0.861184 0.344100 0.211006
Si97 Si 0.098484 0.370156 0.515495
Si98 Si 0.932444 0.660771 0.515429
Si99 Si 0.660765 0.759237 0.515459
Si100 Si 0.370164 0.271691 0.515472
Si101 Si 0.271747 0.932515 0.515465
Si102 Si 0.759180 0.098412 0.515465
Si103 Si 0.370162 0.098436 0.515464
Si104 Si 0.660766 0.932491 0.515470
Si105 Si 0.759268 0.660793 0.515434
Si106 Si 0.271659 0.370135 0.515492
Si107 Si 0.932456 0.271671 0.515467
Si108 Si 0.098471 0.759257 0.515457
