# CIF file generated from LTL3.in
data_generated_cif
_audit_creation_method 'Generated by cp2k_to_cif'
_cell_length_a 18.397890
_cell_length_b 18.397890
_cell_length_c 7.680505
_cell_angle_alpha 90.000000
_cell_angle_beta 90.000000
_cell_angle_gamma 120.000000
loop_
_symmetry_equiv_pos_as_xyz
'x, y, z'
loop_
_atom_site_label
_atom_site_type_symbol
_atom_site_fract_x
_atom_site_fract_y
_atom_site_fract_z
O1 O 0.264490 0.529163 0.223525
O2 O 0.735408 0.470620 0.776712
O3 O 0.470658 0.735217 0.223384
O4 O 0.529260 0.264727 0.776730
O5 O 0.264774 0.735236 0.222900
O6 O 0.735280 0.264594 0.776839
O7 O 0.735367 0.470679 0.223239
O8 O 0.264749 0.529489 0.776998
O9 O 0.529309 0.264595 0.223351
O10 O 0.470786 0.735483 0.776740
O11 O 0.735325 0.264667 0.223458
O12 O 0.264693 0.735239 0.776788
O13 O 0.110405 0.417139 0.325251
O14 O 0.889257 0.582531 0.674189
O15 O 0.582911 0.693354 0.325139
O16 O 0.417150 0.306675 0.674830
O17 O 0.306683 0.889384 0.325356
O18 O 0.693338 0.110110 0.675114
O19 O 0.889974 0.583318 0.324674
O20 O 0.110418 0.417069 0.674802
O21 O 0.416919 0.306590 0.325267
O22 O 0.582991 0.693372 0.674740
O23 O 0.693312 0.110652 0.325716
O24 O 0.306636 0.889722 0.674826
O25 O 0.417015 0.110288 0.674809
O26 O 0.582915 0.889615 0.325229
O27 O 0.693412 0.583239 0.675026
O28 O 0.306657 0.417055 0.325375
O29 O 0.889442 0.306619 0.674499
O30 O 0.110351 0.693415 0.325215
O31 O 0.582841 0.889617 0.674691
O32 O 0.417116 0.110424 0.325454
O33 O 0.306632 0.417204 0.674847
O34 O 0.693319 0.582614 0.325491
O35 O 0.110670 0.693387 0.674905
O36 O 0.889767 0.306681 0.324845
O37 O 0.149227 0.574642 0.261065
O38 O 0.850785 0.425340 0.738903
O39 O 0.425375 0.574562 0.261254
O40 O 0.574606 0.425496 0.738692
O41 O 0.425474 0.850836 0.261350
O42 O 0.574616 0.149183 0.738746
O43 O 0.850747 0.425392 0.261068
O44 O 0.149152 0.574611 0.738706
O45 O 0.574523 0.425347 0.261320
O46 O 0.425456 0.574618 0.738701
O47 O 0.574511 0.149116 0.261276
O48 O 0.425405 0.850879 0.738767
O49 O 0.136753 0.473725 0.000084
O50 O 0.863261 0.526400 -0.000213
O51 O 0.526234 0.662998 -0.000035
O52 O 0.473844 0.337035 -0.000192
O53 O 0.336923 0.863185 0.000088
O54 O 0.663168 0.136785 0.000267
O55 O 0.473755 0.136785 -0.000139
O56 O 0.526174 0.863226 -0.000103
O57 O 0.663024 0.526165 0.000164
O58 O 0.336865 0.473658 0.000038
O59 O 0.863267 0.336829 0.000058
O60 O 0.136767 0.663167 -0.000066
O61 O 0.000039 0.281630 0.499916
O62 O 1.000020 0.718474 0.499796
O63 O 0.718487 0.718485 0.500103
O64 O 0.281463 0.281527 0.500005
O65 O 0.281488 0.999929 0.500081
O66 O 0.718459 0.999977 0.500102
O67 O 0.162995 0.326014 0.500012
O68 O 0.836983 0.674051 0.499845
O69 O 0.673984 0.836987 0.499880
O70 O 0.325905 0.163001 0.499993
O71 O 0.163015 0.836999 0.499968
O72 O 0.837052 0.163085 0.500105
Si73 Si 0.165025 0.498658 0.202139
Si74 Si 0.834946 0.501309 0.797908
Si75 Si 0.501221 0.666365 0.202129
Si76 Si 0.498819 0.333788 0.797655
Si77 Si 0.333600 0.834794 0.201606
Si78 Si 0.666486 0.165075 0.798015
Si79 Si 0.835003 0.501363 0.202290
Si80 Si 0.165117 0.498704 0.797951
Si81 Si 0.498681 0.333434 0.202417
Si82 Si 0.501249 0.666462 0.797616
Si83 Si 0.666375 0.165087 0.201782
Si84 Si 0.333513 0.834807 0.798190
Si85 Si 0.498763 0.164995 0.797872
Si86 Si 0.501182 0.834863 0.201886
Si87 Si 0.666578 0.501433 0.797681
Si88 Si 0.333538 0.498614 0.202174
Si89 Si 0.834895 0.333490 0.798216
Si90 Si 0.165112 0.666458 0.202215
Si91 Si 0.501239 0.835060 0.798030
Si92 Si 0.498672 0.165018 0.201800
Si93 Si 0.333721 0.498807 0.797951
Si94 Si 0.666267 0.501291 0.202104
Si95 Si 0.165231 0.666347 0.798095
Si96 Si 0.834884 0.333692 0.202262
Si97 Si 0.096424 0.360928 0.500126
Si98 Si 0.903614 0.639166 0.500281
Si99 Si 0.639099 0.735437 0.499908
Si100 Si 0.360792 0.264563 0.499922
Si101 Si 0.264458 0.903506 0.500008
Si102 Si 0.735628 0.096435 0.500000
Si103 Si 0.360731 0.096329 0.499776
Si104 Si 0.639132 0.903563 0.499870
Si105 Si 0.735423 0.639010 0.499761
Si106 Si 0.264485 0.361026 0.500176
Si107 Si 0.903702 0.264672 0.499777
Si108 Si 0.096415 0.735483 0.500174
