# CIF file generated from MFI0.in
data_generated_cif
_audit_creation_method 'Generated by cp2k_to_cif'
_cell_length_a 20.090000
_cell_length_b 19.738000
_cell_length_c 13.142000
_cell_angle_alpha 90.000000
_cell_angle_beta 90.000000
_cell_angle_gamma 90.000000
loop_
_symmetry_equiv_pos_as_xyz
'x, y, z'
loop_
_atom_site_label
_atom_site_type_symbol
_atom_site_fract_x
_atom_site_fract_y
_atom_site_fract_z
O1 O 0.502885 0.072294 0.705129
O2 O 0.497116 0.927707 0.294871
O3 O 0.996893 0.927424 0.204769
O4 O 0.003108 0.072576 0.795231
O5 O 0.497115 0.572294 0.294874
O6 O 0.502884 0.427705 0.705127
O7 O 0.003105 0.427423 0.795229
O8 O 0.996896 0.572577 0.204771
O9 O 0.388732 0.074392 0.801295
O10 O 0.611267 0.925608 0.198706
O11 O 0.110808 0.927633 0.301919
O12 O 0.889193 0.072368 0.698082
O13 O 0.611267 0.574394 0.198709
O14 O 0.388733 0.425607 0.801291
O15 O 0.889189 0.427634 0.698073
O16 O 0.110812 0.572366 0.301928
O17 O 0.401470 0.140178 0.628260
O18 O 0.598530 0.859821 0.371740
O19 O 0.099825 0.862100 0.128261
O20 O 0.900175 0.137899 0.871739
O21 O 0.598531 0.640179 0.371744
O22 O 0.401469 0.359821 0.628257
O23 O 0.900176 0.362101 0.871737
O24 O 0.099825 0.637899 0.128263
O25 O 0.399176 0.004525 0.631198
O26 O 0.600824 0.995474 0.368799
O27 O 0.099810 0.996564 0.130961
O28 O 0.900190 0.003435 0.869041
O29 O 0.600823 0.504527 0.368800
O30 O 0.399177 0.495475 0.631199
O31 O 0.900191 0.496565 0.869042
O32 O 0.099809 0.503437 0.130961
O33 O 0.329513 0.038895 0.971856
O34 O 0.670488 0.961105 0.028144
O35 O 0.171411 0.962977 0.472386
O36 O 0.828590 0.037025 0.527616
O37 O 0.670485 0.538895 0.028139
O38 O 0.329516 0.461106 0.971861
O39 O 0.828582 0.462992 0.527597
O40 O 0.171418 0.537005 0.472407
O41 O 0.332524 0.954818 0.813195
O42 O 0.667475 0.045181 0.186805
O43 O 0.168271 0.046015 0.312979
O44 O 0.831729 0.953983 0.687022
O45 O 0.667479 0.454822 0.186806
O46 O 0.332521 0.545179 0.813193
O47 O 0.831731 0.546015 0.687017
O48 O 0.168268 0.453987 0.312984
O49 O 0.256881 0.065882 0.810904
O50 O 0.743120 0.934120 0.189098
O51 O 0.243465 0.935150 0.310955
O52 O 0.756535 0.064850 0.689046
O53 O 0.743116 0.565894 0.189079
O54 O 0.256885 0.434104 0.810925
O55 O 0.756537 0.435149 0.689040
O56 O 0.243463 0.564851 0.310960
O57 O 0.289612 0.131949 0.101843
O58 O 0.710388 0.868050 0.898155
O59 O 0.209334 0.867968 0.601525
O60 O 0.790665 0.132032 0.398476
O61 O 0.710387 0.631950 0.898157
O62 O 0.289613 0.368051 0.101842
O63 O 0.790666 0.367967 0.398474
O64 O 0.209333 0.632034 0.601527
O65 O 0.202874 0.042376 0.025808
O66 O 0.797126 0.957624 0.974192
O67 O 0.297553 0.956022 0.525385
O68 O 0.702446 0.043979 0.474617
O69 O 0.797126 0.542376 0.974192
O70 O 0.202874 0.457625 0.025807
O71 O 0.702451 0.456030 0.474604
O72 O 0.297549 0.543968 0.525398
O73 O 0.294931 0.003668 0.157449
O74 O 0.705069 0.996330 0.842553
O75 O 0.206488 0.995031 0.660005
O76 O 0.793512 0.004968 0.339995
O77 O 0.705069 0.503670 0.842553
O78 O 0.294931 0.496332 0.157450
O79 O 0.793510 0.495035 0.339982
O80 O 0.206489 0.504966 0.660019
O81 O 0.107912 0.127055 0.085521
O82 O 0.892088 0.872945 0.914478
O83 O 0.393034 0.873545 0.588820
O84 O 0.606966 0.126454 0.411181
O85 O 0.892089 0.627056 0.914479
O86 O 0.107911 0.372945 0.085520
O87 O 0.606968 0.373548 0.411183
O88 O 0.393031 0.626452 0.588817
O89 O 0.083556 0.036400 0.943240
O90 O 0.916444 0.963600 0.056759
O91 O 0.417548 0.963333 0.444179
O92 O 0.582451 0.036668 0.555821
O93 O 0.916442 0.536401 0.056761
O94 O 0.083558 0.463599 0.943238
O95 O 0.582454 0.463333 0.555817
O96 O 0.417544 0.536668 0.444182
O97 O 0.130087 0.079501 0.764001
O98 O 0.869911 0.920501 0.235997
O99 O 0.369917 0.920284 0.265212
O100 O 0.630083 0.079716 0.734787
O101 O 0.869919 0.579506 0.236006
O102 O 0.130079 0.420493 0.763994
O103 O 0.630084 0.420283 0.734789
O104 O 0.369916 0.579716 0.265211
O105 O 0.073541 0.958567 0.780346
O106 O 0.926459 0.041432 0.219654
O107 O 0.425367 0.041037 0.280004
O108 O 0.574633 0.958960 0.719996
O109 O 0.926458 0.458569 0.219656
O110 O 0.073542 0.541433 0.780343
O111 O 0.574632 0.541040 0.719996
O112 O 0.425367 0.458963 0.280005
O113 O 0.222754 0.129206 0.644497
O114 O 0.777246 0.870791 0.355503
O115 O 0.278153 0.868133 0.148012
O116 O 0.721846 0.131866 0.851987
O117 O 0.777245 0.629196 0.355502
O118 O 0.222754 0.370806 0.644500
O119 O 0.721846 0.368134 0.851987
O120 O 0.278153 0.631866 0.148012
O121 O 0.492258 0.854662 0.720039
O122 O 0.507742 0.145338 0.279961
O123 O 0.008769 0.145232 0.219546
O124 O 0.991230 0.854768 0.780454
O125 O 0.507743 0.354663 0.279960
O126 O 0.492257 0.645337 0.720041
O127 O 0.991230 0.645232 0.780457
O128 O 0.008769 0.354768 0.219543
O129 O 0.369248 0.828962 0.777544
O130 O 0.630752 0.171038 0.222455
O131 O 0.132105 0.171359 0.273552
O132 O 0.867896 0.828641 0.726449
O133 O 0.630753 0.328965 0.222456
O134 O 0.369247 0.671036 0.777545
O135 O 0.867896 0.671358 0.726446
O136 O 0.132105 0.328643 0.273554
O137 O 0.425959 0.749999 0.641999
O138 O 0.574041 0.250001 0.358001
O139 O 0.073195 0.250000 0.138598
O140 O 0.926805 0.750000 0.861401
O141 O 0.319226 0.862304 0.957294
O142 O 0.680773 0.137696 0.042707
O143 O 0.179663 0.140177 0.456037
O144 O 0.820337 0.859822 0.543963
O145 O 0.680774 0.362306 0.042707
O146 O 0.319226 0.637694 0.957294
O147 O 0.820335 0.640172 0.543958
O148 O 0.179664 0.359829 0.456043
O149 O 0.240867 0.859713 0.797712
O150 O 0.759132 0.140286 0.202288
O151 O 0.260052 0.140125 0.298359
O152 O 0.739948 0.859875 0.701643
O153 O 0.759133 0.359712 0.202287
O154 O 0.240867 0.640289 0.797712
O155 O 0.739948 0.640124 0.701640
O156 O 0.260051 0.359876 0.298359
O157 O 0.294920 0.749999 0.061778
O158 O 0.705080 0.250001 0.938222
O159 O 0.206079 0.250002 0.565824
O160 O 0.793920 0.749999 0.434177
O161 O 0.195931 0.829975 0.000526
O162 O 0.804069 0.170025 0.999474
O163 O 0.304209 0.171174 0.500506
O164 O 0.695791 0.828831 0.499494
O165 O 0.804069 0.329976 0.999473
O166 O 0.195931 0.670024 0.000526
O167 O 0.695792 0.671182 0.499489
O168 O 0.304209 0.328817 0.500512
O169 O 0.090945 0.749999 0.019995
O170 O 0.909055 0.250001 0.980005
O171 O 0.410196 0.249998 0.513919
O172 O 0.589805 0.750003 0.486081
O173 O 0.078326 0.869192 0.930926
O174 O 0.921674 0.130808 0.069075
O175 O 0.420468 0.128574 0.430857
O176 O 0.579533 0.871425 0.569144
O177 O 0.921673 0.369194 0.069074
O178 O 0.078327 0.630806 0.930927
O179 O 0.579532 0.628574 0.569141
O180 O 0.420467 0.371424 0.430856
O181 O 0.117900 0.834747 0.743387
O182 O 0.882100 0.165253 0.256612
O183 O 0.382282 0.165660 0.242563
O184 O 0.617719 0.834340 0.757436
O185 O 0.882100 0.334747 0.256612
O186 O 0.117901 0.665253 0.743387
O187 O 0.617718 0.665661 0.757440
O188 O 0.382282 0.334340 0.242563
O189 O 0.212614 0.750001 0.688135
O190 O 0.787386 0.249999 0.311865
O191 O 0.286390 0.250000 0.188122
O192 O 0.713610 0.750000 0.811878
Si193 Si 0.423341 0.072491 0.689610
Si194 Si 0.576658 0.927510 0.310390
Si195 Si 0.076464 0.928779 0.190077
Si196 Si 0.923536 0.071222 0.809924
Si197 Si 0.576658 0.572491 0.310393
Si198 Si 0.423341 0.427507 0.689605
Si199 Si 0.923533 0.428779 0.809916
Si200 Si 0.076467 0.571220 0.190084
Si201 Si 0.326484 0.033229 0.849213
Si202 Si 0.673516 0.966772 0.150788
Si203 Si 0.173901 0.967789 0.349529
Si204 Si 0.826099 0.032212 0.650474
Si205 Si 0.673512 0.533230 0.150782
Si206 Si 0.326489 0.466768 0.849220
Si207 Si 0.826097 0.467790 0.650452
Si208 Si 0.173903 0.532209 0.349552
Si209 Si 0.278674 0.054463 0.064425
Si210 Si 0.721326 0.945538 0.935574
Si211 Si 0.221731 0.945402 0.564950
Si212 Si 0.778269 0.054600 0.435053
Si213 Si 0.721326 0.554462 0.935573
Si214 Si 0.278674 0.445537 0.064426
Si215 Si 0.778269 0.445399 0.435034
Si216 Si 0.221732 0.554601 0.564969
Si217 Si 0.123843 0.050869 0.046864
Si218 Si 0.876157 0.949133 0.953135
Si219 Si 0.376657 0.949107 0.547625
Si220 Si 0.623343 0.050894 0.452376
Si221 Si 0.876157 0.550868 0.953135
Si222 Si 0.123843 0.449131 0.046865
Si223 Si 0.623349 0.449108 0.452373
Si224 Si 0.376651 0.550890 0.547627
Si225 Si 0.072881 0.036168 0.821374
Si226 Si 0.927119 0.963833 0.178626
Si227 Si 0.427253 0.963654 0.321951
Si228 Si 0.572747 0.036346 0.678049
Si229 Si 0.927122 0.536169 0.178628
Si230 Si 0.072878 0.463831 0.821373
Si231 Si 0.572748 0.463653 0.678048
Si232 Si 0.427252 0.536346 0.321953
Si233 Si 0.203866 0.067107 0.718297
Si234 Si 0.796134 0.932894 0.281706
Si235 Si 0.296507 0.932405 0.218363
Si236 Si 0.703493 0.067596 0.781638
Si237 Si 0.796134 0.567102 0.281683
Si238 Si 0.203867 0.432898 0.718321
Si239 Si 0.703497 0.432405 0.781634
Si240 Si 0.296504 0.567595 0.218366
Si241 Si 0.420406 0.827421 0.682010
Si242 Si 0.579595 0.172580 0.317990
Si243 Si 0.080107 0.172719 0.179114
Si244 Si 0.919894 0.827281 0.820886
Si245 Si 0.579596 0.327422 0.317990
Si246 Si 0.420404 0.672578 0.682008
Si247 Si 0.919893 0.672719 0.820884
Si248 Si 0.080108 0.327281 0.179116
Si249 Si 0.315774 0.876249 0.836025
Si250 Si 0.684226 0.123752 0.163975
Si251 Si 0.184568 0.124706 0.335107
Si252 Si 0.815432 0.875296 0.664893
Si253 Si 0.684227 0.376249 0.163974
Si254 Si 0.315773 0.623749 0.836026
Si255 Si 0.815432 0.624703 0.664888
Si256 Si 0.184568 0.375296 0.335113
Si257 Si 0.271754 0.827460 0.042324
Si258 Si 0.728247 0.172540 0.957676
Si259 Si 0.228313 0.172825 0.541724
Si260 Si 0.771687 0.827176 0.458277
Si261 Si 0.728247 0.327461 0.957676
Si262 Si 0.271754 0.672539 0.042324
Si263 Si 0.771688 0.672818 0.458265
Si264 Si 0.228313 0.327183 0.541735
Si265 Si 0.116485 0.827773 0.019938
Si266 Si 0.883515 0.172228 0.980062
Si267 Si 0.383802 0.172498 0.518699
Si268 Si 0.616197 0.827505 0.481302
Si269 Si 0.883514 0.327774 0.980061
Si270 Si 0.116485 0.672226 0.019940
Si271 Si 0.616196 0.672501 0.481305
Si272 Si 0.383803 0.327499 0.518698
Si273 Si 0.065724 0.879182 0.809706
Si274 Si 0.934276 0.120819 0.190293
Si275 Si 0.433556 0.120350 0.309347
Si276 Si 0.566444 0.879651 0.690653
Si277 Si 0.934276 0.379182 0.190293
Si278 Si 0.065724 0.620817 0.809707
Si279 Si 0.566444 0.620351 0.690650
Si280 Si 0.433557 0.379649 0.309347
Si281 Si 0.194889 0.828622 0.707732
Si282 Si 0.805111 0.171379 0.292268
Si283 Si 0.305069 0.171521 0.207564
Si284 Si 0.694930 0.828479 0.792436
Si285 Si 0.805111 0.328618 0.292266
Si286 Si 0.194888 0.671383 0.707734
Si287 Si 0.694931 0.671520 0.792437
Si288 Si 0.305069 0.328480 0.207564
