# CIF file generated from MFI1.in
data_generated_cif
_audit_creation_method 'Generated by cp2k_to_cif'
_cell_length_a 19.788650
_cell_length_b 19.441930
_cell_length_c 12.944870
_cell_angle_alpha 90.000000
_cell_angle_beta 90.000000
_cell_angle_gamma 90.000000
loop_
_symmetry_equiv_pos_as_xyz
'x, y, z'
loop_
_atom_site_label
_atom_site_type_symbol
_atom_site_fract_x
_atom_site_fract_y
_atom_site_fract_z
O1 O 0.513402 0.091045 0.716295
O2 O 0.501038 0.925632 0.300897
O3 O 1.001311 0.926092 0.219107
O4 O 0.012605 0.089049 0.795034
O5 O 0.501391 0.588190 0.296378
O6 O 0.513535 0.425680 0.716076
O7 O 0.012566 0.428565 0.796019
O8 O 1.003286 0.586942 0.221175
O9 O 0.399519 0.085234 0.814169
O10 O 0.614401 0.931252 0.202446
O11 O 0.115475 0.931400 0.315416
O12 O 0.896815 0.085339 0.701817
O13 O 0.616660 0.585676 0.203150
O14 O 0.399222 0.431371 0.810854
O15 O 0.897052 0.431172 0.702396
O16 O 0.118105 0.585251 0.314754
O17 O 0.407232 0.151531 0.636254
O18 O 0.607414 0.864890 0.380619
O19 O 0.107459 0.864570 0.139154
O20 O 0.908302 0.151323 0.877813
O21 O 0.604727 0.651756 0.380729
O22 O 0.408254 0.364207 0.635350
O23 O 0.908891 0.364201 0.877775
O24 O 0.105665 0.652421 0.138796
O25 O 0.414946 0.014640 0.639468
O26 O 0.600718 1.001643 0.376896
O27 O 0.100832 1.001229 0.140319
O28 O 0.914182 0.013348 0.873488
O29 O 0.601168 0.514795 0.377111
O30 O 0.415547 0.501429 0.635788
O31 O 0.912805 0.501477 0.876789
O32 O 0.104296 0.515168 0.139905
O33 O 0.338630 0.040032 0.985756
O34 O 0.675306 0.974652 0.030599
O35 O 0.173542 0.976744 0.487689
O36 O 0.840517 0.037395 0.529021
O37 O 0.675475 0.542168 0.030155
O38 O 0.340865 0.473777 0.984986
O39 O 0.840343 0.476607 0.529231
O40 O 0.175503 0.539273 0.486676
O41 O 0.344315 0.963300 0.817670
O42 O 0.669769 0.052933 0.198245
O43 O 0.169550 0.053269 0.317840
O44 O 0.846595 0.961245 0.698332
O45 O 0.669381 0.462978 0.196272
O46 O 0.344333 0.553107 0.817836
O47 O 0.844105 0.553781 0.698586
O48 O 0.169624 0.461804 0.317960
O49 O 0.267406 0.076648 0.827150
O50 O 0.746692 0.939818 0.189441
O51 O 0.248831 0.942483 0.331509
O52 O 0.765020 0.071161 0.685120
O53 O 0.748996 0.574170 0.188899
O54 O 0.267464 0.439866 0.827233
O55 O 0.764797 0.442741 0.685126
O56 O 0.250857 0.571366 0.329015
O57 O 0.292388 0.138214 0.105911
O58 O 0.722307 0.876749 0.910745
O59 O 0.217002 0.877081 0.606990
O60 O 0.798806 0.138527 0.410118
O61 O 0.722680 0.639948 0.910486
O62 O 0.292585 0.376146 0.105756
O63 O 0.797239 0.375951 0.409870
O64 O 0.216602 0.639283 0.607772
O65 O 0.207536 0.042237 0.030230
O66 O 0.806609 0.974194 0.982600
O67 O 0.303878 0.974254 0.538725
O68 O 0.710413 0.042890 0.478005
O69 O 0.806593 0.543103 0.985979
O70 O 0.208690 0.471188 0.027009
O71 O 0.710203 0.471775 0.478328
O72 O 0.304783 0.544852 0.538557
O73 O 0.297203 0.011508 0.173629
O74 O 0.714290 1.003791 0.842802
O75 O 0.211439 1.003342 0.677935
O76 O 0.802409 0.012960 0.338467
O77 O 0.717064 0.512389 0.842784
O78 O 0.297727 0.504197 0.169956
O79 O 0.802530 0.501835 0.338949
O80 O 0.213095 0.512480 0.677368
O81 O 0.117591 0.133003 0.093867
O82 O 0.897388 0.881976 0.922933
O83 O 0.394319 0.882287 0.598189
O84 O 0.619364 0.134533 0.418180
O85 O 0.897333 0.633879 0.923304
O86 O 0.117185 0.382172 0.094196
O87 O 0.618146 0.381608 0.418450
O88 O 0.397032 0.634562 0.598311
O89 O 0.083952 0.042560 0.951870
O90 O 0.929409 0.973949 0.063652
O91 O 0.424272 0.971004 0.451083
O92 O 0.589564 0.045536 0.564867
O93 O 0.929843 0.542900 0.065395
O94 O 0.084194 0.473228 0.952864
O95 O 0.589713 0.471073 0.565457
O96 O 0.424179 0.547688 0.448340
O97 O 0.140389 0.093741 0.781151
O98 O 0.873648 0.922700 0.235308
O99 O 0.373571 0.922612 0.272898
O100 O 0.640969 0.094405 0.741328
O101 O 0.875643 0.593418 0.239626
O102 O 0.140556 0.422744 0.780883
O103 O 0.640525 0.422866 0.744165
O104 O 0.374031 0.593917 0.268689
O105 O 0.080269 0.970626 0.780097
O106 O 0.933844 0.045185 0.236136
O107 O 0.433577 0.044047 0.280089
O108 O 0.581008 0.972637 0.736211
O109 O 0.933735 0.469752 0.236041
O110 O 0.082941 0.546056 0.782156
O111 O 0.580163 0.544502 0.736369
O112 O 0.430794 0.471062 0.280106
O113 O 0.235646 0.137839 0.656067
O114 O 0.778504 0.878638 0.360760
O115 O 0.272977 0.875990 0.159947
O116 O 0.741453 0.138247 0.857257
O117 O 0.777927 0.636957 0.360097
O118 O 0.235633 0.376861 0.657050
O119 O 0.741489 0.376561 0.856698
O120 O 0.272474 0.639858 0.157686
O121 O 0.497745 0.867777 0.728175
O122 O 0.517589 0.148292 0.284617
O123 O 0.018647 0.149013 0.232094
O124 O 0.996186 0.865733 0.784628
O125 O 0.516396 0.367810 0.284594
O126 O 0.498283 0.651276 0.732241
O127 O 0.996008 0.648448 0.784217
O128 O 0.018053 0.365362 0.232339
O129 O 0.376516 0.834143 0.789857
O130 O 0.639978 0.182546 0.227278
O131 O 0.142344 0.182842 0.281138
O132 O 0.871768 0.831357 0.735825
O133 O 0.637747 0.334116 0.226281
O134 O 0.376336 0.682542 0.789715
O135 O 0.873322 0.682715 0.734608
O136 O 0.141124 0.331919 0.282486
O137 O 0.435761 0.758690 0.647340
O138 O 0.577569 0.258068 0.366311
O139 O 0.077885 0.257459 0.143056
O140 O 0.937519 0.757577 0.873304
O141 O 0.325439 0.874236 0.970539
O142 O 0.689742 0.142782 0.046436
O143 O 0.186533 0.145026 0.466197
O144 O 0.828188 0.868779 0.550475
O145 O 0.689406 0.373548 0.044987
O146 O 0.324764 0.642466 0.969706
O147 O 0.827480 0.645486 0.549466
O148 O 0.186687 0.371009 0.467066
O149 O 0.247918 0.870987 0.806153
O150 O 0.768135 0.143101 0.210442
O151 O 0.268748 0.143074 0.306546
O152 O 0.745566 0.873436 0.709972
O153 O 0.766105 0.370773 0.210664
O154 O 0.247800 0.645645 0.806050
O155 O 0.745891 0.645424 0.709389
O156 O 0.268314 0.370937 0.306596
O157 O 0.301895 0.758205 0.069977
O158 O 0.714193 0.257701 0.943018
O159 O 0.208898 0.257552 0.573882
O160 O 0.804851 0.757421 0.438925
O161 O 0.200233 0.834401 0.001329
O162 O 0.814928 0.181699 1.014831
O163 O 0.311656 0.182657 0.504276
O164 O 0.703338 0.831819 0.511830
O165 O 0.814924 0.334251 1.014662
O166 O 0.199185 0.682745 0.001211
O167 O 0.702202 0.682633 0.511310
O168 O 0.311607 0.332227 0.504983
O169 O 0.089159 0.759098 0.013990
O170 O 0.925027 0.257544 1.002635
O171 O 0.422502 0.257366 0.509772
O172 O 0.591760 0.758333 0.506650
O173 O 0.083467 0.885119 0.939039
O174 O 0.932432 0.131461 0.077299
O175 O 0.427182 0.131500 0.435254
O176 O 0.589396 0.885107 0.580880
O177 O 0.932556 0.382974 0.077533
O178 O 0.081362 0.633664 0.939373
O179 O 0.587155 0.631673 0.581079
O180 O 0.426959 0.382979 0.435049
O181 O 0.123805 0.842806 0.751228
O182 O 0.890954 0.173564 0.264950
O183 O 0.390637 0.171019 0.243359
O184 O 0.623613 0.845555 0.773579
O185 O 0.890056 0.342516 0.265437
O186 O 0.123647 0.674016 0.751431
O187 O 0.623971 0.671219 0.773733
O188 O 0.390383 0.343013 0.243335
O189 O 0.221903 0.758331 0.697112
O190 O 0.791975 0.257278 0.319049
O191 O 0.291783 0.257081 0.196724
O192 O 0.721903 0.758692 0.818975
Si193 Si 0.433240 0.085072 0.699943
Si194 Si 0.581262 0.931345 0.317032
Si195 Si 0.081492 0.931434 0.201660
Si196 Si 0.932635 0.084236 0.814193
Si197 Si 0.581373 0.584604 0.316194
Si198 Si 0.433624 0.431438 0.697510
Si199 Si 0.932498 0.431957 0.815118
Si200 Si 0.083229 0.584317 0.201586
Si201 Si 0.337653 0.041176 0.861247
Si202 Si 0.676352 0.974905 0.155095
Si203 Si 0.176835 0.975908 0.363150
Si204 Si 0.837346 0.038640 0.653590
Si205 Si 0.677616 0.541134 0.154701
Si206 Si 0.338084 0.474910 0.860354
Si207 Si 0.836632 0.476310 0.653721
Si208 Si 0.178607 0.539363 0.362150
Si209 Si 0.283118 0.058375 0.073252
Si210 Si 0.730564 0.956940 0.942452
Si211 Si 0.227475 0.957348 0.577176
Si212 Si 0.787038 0.058475 0.439775
Si213 Si 0.731223 0.559816 0.942725
Si214 Si 0.284216 0.455818 0.071225
Si215 Si 0.786706 0.456086 0.439899
Si216 Si 0.228228 0.559382 0.577251
Si217 Si 0.127976 0.054793 0.054701
Si218 Si 0.886337 0.960690 0.960079
Si219 Si 0.383826 0.960414 0.557662
Si220 Si 0.630494 0.056431 0.458770
Si221 Si 0.886243 0.555539 0.962172
Si222 Si 0.129212 0.460244 0.054548
Si223 Si 0.630161 0.459568 0.459031
Si224 Si 0.384911 0.557186 0.556065
Si225 Si 0.079699 0.047921 0.827676
Si226 Si 0.934325 0.968026 0.187803
Si227 Si 0.432749 0.966752 0.327324
Si228 Si 0.581462 0.049888 0.688621
Si229 Si 0.935179 0.547361 0.189672
Si230 Si 0.080297 0.468568 0.828572
Si231 Si 0.581538 0.467080 0.689334
Si232 Si 0.432264 0.549186 0.324484
Si233 Si 0.213745 0.077575 0.733604
Si234 Si 0.800336 0.938763 0.282930
Si235 Si 0.298252 0.938276 0.232393
Si236 Si 0.715452 0.076881 0.783766
Si237 Si 0.801432 0.576386 0.283963
Si238 Si 0.214115 0.438242 0.733311
Si239 Si 0.715810 0.438835 0.784642
Si240 Si 0.298822 0.577337 0.228725
Si241 Si 0.426468 0.836301 0.690486
Si242 Si 0.588274 0.180290 0.324586
Si243 Si 0.088520 0.180113 0.186989
Si244 Si 0.926153 0.834812 0.829489
Si245 Si 0.587089 0.336025 0.324638
Si246 Si 0.427103 0.681187 0.691343
Si247 Si 0.926552 0.680259 0.829473
Si248 Si 0.088093 0.334810 0.187205
Si249 Si 0.323892 0.885125 0.846397
Si250 Si 0.691699 0.130814 0.170277
Si251 Si 0.191499 0.131398 0.343240
Si252 Si 0.823188 0.883345 0.673255
Si253 Si 0.690367 0.384789 0.169166
Si254 Si 0.323780 0.631346 0.845810
Si255 Si 0.822993 0.632211 0.672746
Si256 Si 0.191080 0.383465 0.343573
Si257 Si 0.275188 0.835848 0.051172
Si258 Si 0.740040 0.180040 0.964666
Si259 Si 0.235867 0.180706 0.550407
Si260 Si 0.778856 0.834294 0.465065
Si261 Si 0.739979 0.335401 0.964509
Si262 Si 0.274484 0.680963 0.049934
Si263 Si 0.777983 0.680770 0.464934
Si264 Si 0.235784 0.334489 0.550901
Si265 Si 0.119899 0.836052 0.023625
Si266 Si 0.895319 0.180206 0.992947
Si267 Si 0.392324 0.180307 0.521583
Si268 Si 0.622705 0.835225 0.494636
Si269 Si 0.895357 0.334925 0.992594
Si270 Si 0.118848 0.681717 0.023933
Si271 Si 0.621382 0.680884 0.494601
Si272 Si 0.392342 0.334442 0.521678
Si273 Si 0.071453 0.891014 0.814726
Si274 Si 0.943152 0.124851 0.201805
Si275 Si 0.441625 0.124153 0.311893
Si276 Si 0.573669 0.892568 0.703649
Si277 Si 0.942797 0.390136 0.201900
Si278 Si 0.071721 0.625577 0.815144
Si279 Si 0.573215 0.624745 0.704556
Si280 Si 0.440323 0.391086 0.311736
Si281 Si 0.202173 0.837751 0.715401
Si282 Si 0.812714 0.177930 0.301402
Si283 Si 0.311394 0.177302 0.212911
Si284 Si 0.702892 0.838564 0.803263
Si285 Si 0.811724 0.336901 0.301131
Si286 Si 0.201961 0.679014 0.715661
Si287 Si 0.703139 0.678746 0.803480
Si288 Si 0.311123 0.336927 0.212830
