# CIF file generated from MFI2.in
data_generated_cif
_audit_creation_method 'Generated by cp2k_to_cif'
_cell_length_a 19.487300
_cell_length_b 19.145860
_cell_length_c 12.747740
_cell_angle_alpha 90.000000
_cell_angle_beta 90.000000
_cell_angle_gamma 90.000000
loop_
_symmetry_equiv_pos_as_xyz
'x, y, z'
loop_
_atom_site_label
_atom_site_type_symbol
_atom_site_fract_x
_atom_site_fract_y
_atom_site_fract_z
O1 O 0.517159 0.099132 0.719179
O2 O 0.498531 0.917570 0.297210
O3 O 0.999954 0.917905 0.223316
O4 O 0.015282 0.096902 0.793054
O5 O 0.498609 0.598926 0.297057
O6 O 0.515576 0.419753 0.719606
O7 O 0.015258 0.420291 0.792751
O8 O 1.000354 0.593801 0.223285
O9 O 0.404304 0.088230 0.819744
O10 O 0.612329 0.926111 0.197009
O11 O 0.114878 0.925981 0.319643
O12 O 0.901587 0.088198 0.694817
O13 O 0.612151 0.588367 0.197042
O14 O 0.402002 0.426134 0.818449
O15 O 0.901282 0.426219 0.694296
O16 O 0.115360 0.590551 0.319420
O17 O 0.406878 0.154270 0.636060
O18 O 0.607955 0.861371 0.380235
O19 O 0.107108 0.859779 0.137250
O20 O 0.907378 0.154305 0.878135
O21 O 0.607779 0.654575 0.379623
O22 O 0.407556 0.359957 0.636456
O23 O 0.908819 0.359457 0.876587
O24 O 0.105958 0.656928 0.138256
O25 O 0.420820 0.015781 0.643367
O26 O 0.595516 0.999446 0.373267
O27 O 0.098097 0.998572 0.143656
O28 O 0.918139 0.015886 0.872531
O29 O 0.595293 0.515604 0.372999
O30 O 0.417009 0.498508 0.640139
O31 O 0.915449 0.498166 0.872209
O32 O 0.101194 0.517711 0.143034
O33 O 0.343733 0.037167 0.993159
O34 O 0.670760 0.976784 0.021474
O35 O 0.170684 0.979538 0.494982
O36 O 0.843581 0.034538 0.520358
O37 O 0.670508 0.537340 0.022069
O38 O 0.343710 0.479208 0.992934
O39 O 0.843509 0.479598 0.520870
O40 O 0.170373 0.536999 0.494462
O41 O 0.349256 0.964392 0.817845
O42 O 0.667440 0.050267 0.198185
O43 O 0.165298 0.052346 0.318268
O44 O 0.849085 0.963831 0.698259
O45 O 0.665046 0.463853 0.198223
O46 O 0.351740 0.552512 0.818281
O47 O 0.849385 0.552042 0.697578
O48 O 0.164869 0.463816 0.318369
O49 O 0.270953 0.079198 0.836188
O50 O 0.745650 0.936974 0.176409
O51 O 0.246827 0.940127 0.339885
O52 O 0.768468 0.076357 0.675855
O53 O 0.745423 0.576748 0.177301
O54 O 0.270055 0.439814 0.835589
O55 O 0.767963 0.440099 0.676511
O56 O 0.248201 0.574105 0.340100
O57 O 0.289949 0.138508 0.102606
O58 O 0.727070 0.876895 0.910904
O59 O 0.224250 0.877731 0.605648
O60 O 0.792164 0.137767 0.410522
O61 O 0.724788 0.639063 0.911197
O62 O 0.289779 0.376622 0.102108
O63 O 0.792913 0.376221 0.410970
O64 O 0.221491 0.640278 0.604839
O65 O 0.208162 0.034563 0.030639
O66 O 0.807494 0.979739 0.985768
O67 O 0.305501 0.982477 0.539079
O68 O 0.709337 0.034099 0.477725
O69 O 0.806314 0.536997 0.985685
O70 O 0.208027 0.477245 0.026865
O71 O 0.709021 0.479599 0.477694
O72 O 0.304570 0.537068 0.535567
O73 O 0.296390 0.012417 0.182142
O74 O 0.719906 1.004158 0.834410
O75 O 0.214213 1.003308 0.686453
O76 O 0.799392 0.013108 0.327680
O77 O 0.718459 0.512259 0.834217
O78 O 0.294908 0.503601 0.180540
O79 O 0.799236 0.501786 0.329564
O80 O 0.215489 0.515127 0.685787
O81 O 0.121025 0.131657 0.093544
O82 O 0.895454 0.883464 0.922234
O83 O 0.392522 0.883916 0.597787
O84 O 0.621709 0.132068 0.418637
O85 O 0.895000 0.631698 0.919716
O86 O 0.117631 0.383847 0.090427
O87 O 0.620680 0.382674 0.418592
O88 O 0.393418 0.632564 0.598373
O89 O 0.081899 0.040948 0.951981
O90 O 0.932877 0.974105 0.064804
O91 O 0.427043 0.973680 0.450421
O92 O 0.587176 0.042901 0.565974
O93 O 0.932538 0.540659 0.062735
O94 O 0.081639 0.476557 0.950642
O95 O 0.587097 0.473530 0.565865
O96 O 0.426848 0.543608 0.449270
O97 O 0.143797 0.099078 0.785442
O98 O 0.871383 0.917191 0.231290
O99 O 0.371011 0.917320 0.277192
O100 O 0.644820 0.099171 0.739239
O101 O 0.871517 0.596681 0.230934
O102 O 0.143359 0.419544 0.781796
O103 O 0.643596 0.417351 0.739763
O104 O 0.371234 0.598996 0.273315
O105 O 0.079511 0.974954 0.772294
O106 O 0.935502 0.040912 0.243893
O107 O 0.434284 0.040858 0.272144
O108 O 0.581789 0.975538 0.744317
O109 O 0.934316 0.472751 0.240863
O110 O 0.080196 0.543155 0.772030
O111 O 0.581594 0.541542 0.744187
O112 O 0.434621 0.475330 0.272168
O113 O 0.243849 0.137621 0.657931
O114 O 0.770260 0.878652 0.356391
O115 O 0.267194 0.876446 0.161482
O116 O 0.749249 0.140116 0.854390
O117 O 0.771898 0.637642 0.355425
O118 O 0.243700 0.379515 0.657255
O119 O 0.749023 0.376557 0.854908
O120 O 0.265274 0.639795 0.161541
O121 O 0.495714 0.870580 0.732732
O122 O 0.520154 0.145689 0.280247
O123 O 0.021491 0.146124 0.236067
O124 O 0.995316 0.868092 0.780284
O125 O 0.518618 0.368122 0.280426
O126 O 0.496280 0.648088 0.735628
O127 O 0.995249 0.648607 0.779937
O128 O 0.020643 0.367892 0.236268
O129 O 0.373757 0.831484 0.789453
O130 O 0.643068 0.182901 0.226599
O131 O 0.145421 0.185462 0.281395
O132 O 0.871311 0.831180 0.731824
O133 O 0.640587 0.331178 0.225738
O134 O 0.373951 0.685534 0.789578
O135 O 0.871181 0.685353 0.731318
O136 O 0.145755 0.331146 0.278323
O137 O 0.437553 0.758456 0.643556
O138 O 0.577993 0.257081 0.369713
O139 O 0.076949 0.257371 0.140313
O140 O 0.937631 0.758112 0.873793
O141 O 0.327092 0.876605 0.974400
O142 O 0.689854 0.137748 0.041278
O143 O 0.186766 0.142855 0.469838
O144 O 0.829287 0.873899 0.543931
O145 O 0.689508 0.376710 0.041792
O146 O 0.326760 0.639929 0.974471
O147 O 0.829515 0.642484 0.543921
O148 O 0.186220 0.372159 0.468656
O149 O 0.246110 0.876374 0.809963
O150 O 0.770623 0.139881 0.205939
O151 O 0.270708 0.139847 0.307269
O152 O 0.745098 0.876333 0.706036
O153 O 0.767932 0.374449 0.208518
O154 O 0.247599 0.639933 0.807169
O155 O 0.745422 0.640053 0.706145
O156 O 0.270465 0.376684 0.307093
O157 O 0.304533 0.758077 0.073558
O158 O 0.711919 0.258058 0.943399
O159 O 0.209603 0.258220 0.577628
O160 O 0.807320 0.758065 0.438616
O161 O 0.200662 0.831675 -0.002936
O162 O 0.815721 0.184967 1.019548
O163 O 0.313165 0.185002 0.497319
O164 O 0.702680 0.829205 0.515817
O165 O 0.816289 0.331849 1.019381
O166 O 0.199984 0.684757 -0.003000
O167 O 0.702696 0.684943 0.515486
O168 O 0.313100 0.331625 0.497276
O169 O 0.086318 0.758458 0.001207
O170 O 0.930258 0.257444 1.011512
O171 O 0.427360 0.257957 0.501357
O172 O 0.587263 0.758008 0.514945
O173 O 0.084174 0.888252 0.934740
O174 O 0.932444 0.128380 0.081422
O175 O 0.429597 0.128558 0.433097
O176 O 0.587543 0.887982 0.582796
O177 O 0.934245 0.387308 0.078464
O178 O 0.082242 0.628550 0.936521
O179 O 0.586713 0.628347 0.582212
O180 O 0.429383 0.387993 0.433678
O181 O 0.123927 0.845325 0.742848
O182 O 0.892813 0.171148 0.273568
O183 O 0.392281 0.171092 0.238887
O184 O 0.623664 0.845579 0.777412
O185 O 0.891210 0.342744 0.268985
O186 O 0.124084 0.673862 0.747222
O187 O 0.624046 0.671603 0.774665
O188 O 0.391227 0.345574 0.239312
O189 O 0.226868 0.758679 0.702067
O190 O 0.789436 0.256879 0.315135
O191 O 0.289769 0.257931 0.198157
O192 O 0.726736 0.758183 0.814553
Si193 Si 0.436315 0.089010 0.702550
Si194 Si 0.579439 0.926696 0.313630
Si195 Si 0.080838 0.926155 0.203983
Si196 Si 0.934501 0.088227 0.811434
Si197 Si 0.579408 0.588724 0.313717
Si198 Si 0.434649 0.426745 0.701664
Si199 Si 0.934262 0.426645 0.810895
Si200 Si 0.081360 0.589232 0.203698
Si201 Si 0.342566 0.042148 0.866962
Si202 Si 0.673073 0.972709 0.147844
Si203 Si 0.173764 0.975007 0.368674
Si204 Si 0.841165 0.040729 0.646595
Si205 Si 0.672674 0.541375 0.148404
Si206 Si 0.342511 0.474707 0.866604
Si207 Si 0.841133 0.474690 0.647118
Si208 Si 0.174077 0.541128 0.368237
Si209 Si 0.283500 0.056053 0.075874
Si210 Si 0.732157 0.959166 0.939567
Si211 Si 0.229536 0.960402 0.580200
Si212 Si 0.785208 0.055140 0.435215
Si213 Si 0.730871 0.556830 0.939612
Si214 Si 0.283283 0.458968 0.074723
Si215 Si 0.785133 0.458777 0.436011
Si216 Si 0.228923 0.557873 0.578981
Si217 Si 0.127809 0.051274 0.055726
Si218 Si 0.887813 0.963581 0.960424
Si219 Si 0.385939 0.964009 0.558579
Si220 Si 0.628863 0.052098 0.458136
Si221 Si 0.886698 0.551899 0.959195
Si222 Si 0.127485 0.464090 0.053851
Si223 Si 0.628381 0.462754 0.457919
Si224 Si 0.385118 0.553077 0.556926
Si225 Si 0.080884 0.051727 0.826403
Si226 Si 0.934605 0.963868 0.190287
Si227 Si 0.432336 0.963724 0.325212
Si228 Si 0.583288 0.052832 0.691419
Si229 Si 0.934222 0.549901 0.188456
Si230 Si 0.080682 0.466056 0.825055
Si231 Si 0.582611 0.464261 0.691384
Si232 Si 0.432153 0.552914 0.323873
Si233 Si 0.218060 0.079711 0.739475
Si234 Si 0.796779 0.936506 0.275182
Si235 Si 0.295309 0.936727 0.237804
Si236 Si 0.720572 0.079780 0.778581
Si237 Si 0.796943 0.578046 0.275799
Si238 Si 0.218149 0.438391 0.737789
Si239 Si 0.719630 0.436507 0.778818
Si240 Si 0.294980 0.579220 0.236380
Si241 Si 0.425486 0.836361 0.690001
Si242 Si 0.590278 0.179095 0.324598
Si243 Si 0.090363 0.179811 0.186801
Si244 Si 0.925440 0.835889 0.827901
Si245 Si 0.588922 0.335342 0.324926
Si246 Si 0.425860 0.680655 0.690555
Si247 Si 0.925278 0.680546 0.827248
Si248 Si 0.089574 0.335489 0.185261
Si249 Si 0.324491 0.886540 0.848281
Si250 Si 0.692433 0.128146 0.167617
Si251 Si 0.191957 0.130354 0.344649
Si252 Si 0.823945 0.885854 0.669310
Si253 Si 0.690395 0.386039 0.168043
Si254 Si 0.325302 0.630008 0.848194
Si255 Si 0.824153 0.630171 0.669128
Si256 Si 0.191542 0.385757 0.343762
Si257 Si 0.275065 0.835706 0.052203
Si258 Si 0.741353 0.180299 0.964224
Si259 Si 0.238304 0.181037 0.551141
Si260 Si 0.777641 0.835118 0.463108
Si261 Si 0.741665 0.335663 0.964359
Si262 Si 0.274453 0.680668 0.052255
Si263 Si 0.777854 0.680773 0.462714
Si264 Si 0.238141 0.335416 0.550851
Si265 Si 0.119174 0.835245 0.017766
Si266 Si 0.897031 0.180507 0.997341
Si267 Si 0.394726 0.180840 0.517361
Si268 Si 0.620956 0.834776 0.498455
Si269 Si 0.897712 0.334583 0.996171
Si270 Si 0.118414 0.681429 0.018720
Si271 Si 0.620832 0.681151 0.497943
Si272 Si 0.394695 0.335023 0.517289
Si273 Si 0.071580 0.894273 0.808636
Si274 Si 0.944623 0.121558 0.207597
Si275 Si 0.443050 0.121691 0.307272
Si276 Si 0.573084 0.894823 0.708307
Si277 Si 0.944144 0.392378 0.205317
Si278 Si 0.071446 0.623398 0.809912
Si279 Si 0.572767 0.622185 0.707875
Si280 Si 0.442342 0.394427 0.307648
Si281 Si 0.204756 0.839248 0.715095
Si282 Si 0.811829 0.176522 0.301323
Si283 Si 0.311184 0.177138 0.211429
Si284 Si 0.705032 0.838921 0.802218
Si285 Si 0.811001 0.337439 0.301178
Si286 Si 0.204462 0.678304 0.715516
Si287 Si 0.704957 0.677464 0.801827
Si288 Si 0.310552 0.338798 0.211519
