# CIF file generated from MFI3.in
data_generated_cif
_audit_creation_method 'Generated by cp2k_to_cif'
_cell_length_a 20.391350
_cell_length_b 20.034070
_cell_length_c 13.339130
_cell_angle_alpha 90.000000
_cell_angle_beta 90.000000
_cell_angle_gamma 90.000000
loop_
_symmetry_equiv_pos_as_xyz
'x, y, z'
loop_
_atom_site_label
_atom_site_type_symbol
_atom_site_fract_x
_atom_site_fract_y
_atom_site_fract_z
O1 O 0.493685 0.060342 0.699471
O2 O 0.490955 0.926125 0.288137
O3 O 0.989685 0.926099 0.197850
O4 O -0.004965 0.060132 0.786355
O5 O 0.490002 0.561475 0.285037
O6 O 0.494063 0.425048 0.698969
O7 O -0.004612 0.425376 0.786207
O8 O 0.989587 0.561717 0.196938
O9 O 0.377611 0.062847 0.788303
O10 O 0.606720 0.923762 0.198798
O11 O 0.105192 0.926395 0.286402
O12 O 0.879213 0.060265 0.697999
O13 O 0.606047 0.561916 0.195945
O14 O 0.377700 0.422493 0.787867
O15 O 0.879115 0.424853 0.697375
O16 O 0.105412 0.559122 0.287342
O17 O 0.395944 0.129868 0.622256
O18 O 0.587931 0.854648 0.363439
O19 O 0.088480 0.857359 0.121162
O20 O 0.896869 0.129695 0.863005
O21 O 0.587869 0.630432 0.362914
O22 O 0.396331 0.356136 0.620651
O23 O 0.897153 0.358382 0.865368
O24 O 0.089622 0.628090 0.121427
O25 O 0.392259 -0.003928 0.619269
O26 O 0.593408 0.988535 0.368950
O27 O 0.089220 0.990547 0.113854
O28 O 0.894687 -0.004072 0.870154
O29 O 0.590871 0.496452 0.365693
O30 O 0.393133 0.489933 0.619062
O31 O 0.895026 0.491827 0.866003
O32 O 0.089241 0.494308 0.117106
O33 O 0.316399 0.035882 0.957101
O34 O 0.668067 0.948234 0.029229
O35 O 0.168890 0.947950 0.455435
O36 O 0.815491 0.038404 0.529945
O37 O 0.667920 0.534374 0.026968
O38 O 0.316512 0.449492 0.957951
O39 O 0.815292 0.449470 0.528669
O40 O 0.168593 0.534750 0.457956
O41 O 0.322497 0.945436 0.810829
O42 O 0.664350 0.040117 0.175739
O43 O 0.166493 0.040116 0.310078
O44 O 0.817707 0.946118 0.674487
O45 O 0.664678 0.446234 0.176862
O46 O 0.321933 0.539294 0.810894
O47 O 0.817857 0.538806 0.677360
O48 O 0.166551 0.445365 0.309321
O49 O 0.246758 0.052432 0.793135
O50 O 0.737964 0.931543 0.191500
O51 O 0.236234 0.929022 0.290733
O52 O 0.748275 0.057309 0.696129
O53 O 0.737174 0.556033 0.190566
O54 O 0.246609 0.430524 0.796425
O55 O 0.747912 0.427600 0.692910
O56 O 0.236631 0.556371 0.293885
O57 O 0.286016 0.123602 0.096360
O58 O 0.699503 0.862346 0.887665
O59 O 0.203225 0.860221 0.594581
O60 O 0.782966 0.124343 0.389411
O61 O 0.697558 0.622553 0.888112
O62 O 0.285880 0.361805 0.096554
O63 O 0.782590 0.361622 0.389889
O64 O 0.202745 0.624713 0.594723
O65 O 0.194655 0.039857 0.024312
O66 O 0.790414 0.945381 0.962190
O67 O 0.291482 0.945698 0.518842
O68 O 0.692981 0.041339 0.468550
O69 O 0.790073 0.539813 0.958792
O70 O 0.194408 0.445789 0.024481
O71 O 0.692929 0.446839 0.464380
O72 O 0.291593 0.539547 0.518944
O73 O 0.290431 -0.004151 0.141698
O74 O 0.694485 0.990375 0.845907
O75 O 0.196246 0.987819 0.639436
O76 O 0.786000 -0.004099 0.347728
O77 O 0.694134 0.495053 0.841941
O78 O 0.289740 0.489553 0.142449
O79 O 0.787959 0.489200 0.343732
O80 O 0.198407 0.497727 0.643326
O81 O 0.100259 0.121318 0.083827
O82 O 0.886902 0.864906 0.902475
O83 O 0.385190 0.865568 0.585125
O84 O 0.598277 0.119563 0.401397
O85 O 0.886781 0.621032 0.903162
O86 O 0.100213 0.364160 0.083684
O87 O 0.598538 0.366173 0.401855
O88 O 0.385376 0.620429 0.582397
O89 O 0.078796 0.038708 0.933172
O90 O 0.905843 0.948295 0.052000
O91 O 0.409918 0.950737 0.437683
O92 O 0.574295 0.035717 0.549696
O93 O 0.905398 0.534860 0.050479
O94 O 0.078423 0.448909 0.934547
O95 O 0.574713 0.451872 0.548247
O96 O 0.410025 0.534593 0.436752
O97 O 0.121419 0.066029 0.749958
O98 O 0.863533 0.920666 0.236261
O99 O 0.364023 0.918375 0.257154
O100 O 0.620450 0.066122 0.730800
O101 O 0.863191 0.567123 0.232476
O102 O 0.121338 0.419380 0.750670
O103 O 0.620680 0.416940 0.727369
O104 O 0.363549 0.567075 0.256647
O105 O 0.066718 0.949199 0.786191
O106 O 0.918146 0.036977 0.200150
O107 O 0.418819 0.036085 0.284382
O108 O 0.564353 0.949408 0.701801
O109 O 0.919820 0.450205 0.201788
O110 O 0.066685 0.536459 0.786101
O111 O 0.566200 0.535435 0.702496
O112 O 0.419327 0.449577 0.284141
O113 O 0.211532 0.121592 0.635574
O114 O 0.774589 0.862088 0.348122
O115 O 0.279228 0.861998 0.137500
O116 O 0.705410 0.124257 0.849701
O117 O 0.774800 0.623037 0.348179
O118 O 0.211713 0.363930 0.635986
O119 O 0.705474 0.361568 0.849039
O120 O 0.277984 0.623122 0.137507
O121 O 0.486514 0.843965 0.707501
O122 O 0.498763 0.140123 0.276112
O123 O -0.001655 0.140241 0.205924
O124 O 0.988173 0.844207 0.778196
O125 O 0.499326 0.345350 0.275958
O126 O 0.485905 0.639098 0.707007
O127 O 0.987442 0.641014 0.777659
O128 O -0.001643 0.345212 0.206098
O129 O 0.364616 0.824617 0.771647
O130 O 0.620689 0.161156 0.214944
O131 O 0.118548 0.159133 0.273760
O132 O 0.867554 0.827778 0.712561
O133 O 0.621761 0.325576 0.215853
O134 O 0.364555 0.660317 0.771214
O135 O 0.865871 0.657943 0.713602
O136 O 0.118728 0.326234 0.273899
O137 O 0.416190 0.742433 0.638349
O138 O 0.568030 0.242882 0.346348
O139 O 0.069217 0.242775 0.140252
O140 O 0.916609 0.742787 0.844034
O141 O 0.311165 0.849660 0.947691
O142 O 0.675216 0.136731 0.039777
O143 O 0.176397 0.137016 0.446874
O144 O 0.809946 0.849631 0.537643
O145 O 0.675235 0.350921 0.039467
O146 O 0.311187 0.635527 0.947562
O147 O 0.809397 0.633839 0.538013
O148 O 0.176598 0.350327 0.447440
O149 O 0.235611 0.849030 0.787700
O150 O 0.750248 0.137429 0.198813
O151 O 0.249031 0.140009 0.286040
O152 O 0.737666 0.844147 0.700109
O153 O 0.750425 0.348140 0.198527
O154 O 0.235611 0.636206 0.787658
O155 O 0.736768 0.639339 0.700703
O156 O 0.249316 0.345323 0.286228
O157 O 0.284870 0.742427 0.057817
O158 O 0.701330 0.243416 0.929497
O159 O 0.203445 0.242984 0.559436
O160 O 0.781330 0.742287 0.428381
O161 O 0.189438 0.825514 0.004581
O162 O 0.796837 0.160947 0.982205
O163 O 0.298514 0.161150 0.499094
O164 O 0.687212 0.825805 0.485378
O165 O 0.796705 0.326791 0.982709
O166 O 0.189181 0.659823 0.001863
O167 O 0.687055 0.659159 0.485303
O168 O 0.298474 0.324263 0.498769
O169 O 0.088385 0.742700 0.025429
O170 O 0.898016 0.243822 0.962758
O171 O 0.400160 0.242749 0.519021
O172 O 0.586588 0.742525 0.468386
O173 O 0.075525 0.855184 0.924028
O174 O 0.911138 0.129116 0.059606
O175 O 0.414633 0.126717 0.426927
O176 O 0.571477 0.860091 0.557793
O177 O 0.911191 0.358834 0.060300
O178 O 0.073572 0.630327 0.924730
O179 O 0.571362 0.625133 0.557699
O180 O 0.414778 0.358733 0.426246
O181 O 0.112797 0.830586 0.734582
O182 O 0.873650 0.156166 0.249074
O183 O 0.373098 0.156087 0.240892
O184 O 0.612303 0.830235 0.743678
O185 O 0.873476 0.331575 0.249466
O186 O 0.112588 0.654812 0.735237
O187 O 0.611761 0.655236 0.743176
O188 O 0.374013 0.329184 0.239868
O189 O 0.202339 0.742540 0.679137
O190 O 0.784832 0.243122 0.308468
O191 O 0.286387 0.242746 0.173517
O192 O 0.698022 0.742348 0.811206
Si193 Si 0.415315 0.061734 0.680927
Si194 Si 0.569323 0.923686 0.306364
Si195 Si 0.067999 0.925610 0.178598
Si196 Si 0.916625 0.060958 0.805746
Si197 Si 0.568515 0.562273 0.303722
Si198 Si 0.415605 0.423887 0.680414
Si199 Si 0.916908 0.425581 0.804870
Si200 Si 0.068209 0.560345 0.179505
Si201 Si 0.315378 0.024127 0.837139
Si202 Si 0.669451 0.961178 0.149050
Si203 Si 0.169544 0.961028 0.335631
Si204 Si 0.814665 0.025319 0.649747
Si205 Si 0.669386 0.524700 0.147563
Si206 Si 0.315358 0.460577 0.837844
Si207 Si 0.814729 0.460182 0.649042
Si208 Si 0.169481 0.524068 0.337270
Si209 Si 0.271220 0.048905 0.055011
Si210 Si 0.713788 0.936489 0.931306
Si211 Si 0.215449 0.935225 0.552097
Si212 Si 0.768805 0.050189 0.433416
Si213 Si 0.713171 0.547972 0.928984
Si214 Si 0.270934 0.436545 0.055485
Si215 Si 0.769124 0.436641 0.431537
Si216 Si 0.215715 0.549387 0.553649
Si217 Si 0.116084 0.047786 0.038993
Si218 Si 0.869033 0.938439 0.946019
Si219 Si 0.369563 0.939210 0.540509
Si220 Si 0.614830 0.046419 0.446848
Si221 Si 0.868824 0.547115 0.944690
Si222 Si 0.115862 0.438118 0.040055
Si223 Si 0.614529 0.440159 0.444871
Si224 Si 0.369805 0.546245 0.539644
Si225 Si 0.065550 0.027892 0.814650
Si226 Si 0.919129 0.958472 0.170629
Si227 Si 0.420712 0.958228 0.317755
Si228 Si 0.563496 0.027428 0.669477
Si229 Si 0.919439 0.528208 0.169540
Si230 Si 0.065622 0.457933 0.815357
Si231 Si 0.563954 0.457706 0.668362
Si232 Si 0.420725 0.527688 0.316633
Si233 Si 0.193969 0.056762 0.702693
Si234 Si 0.790517 0.927970 0.282471
Si235 Si 0.292632 0.927097 0.205408
Si236 Si 0.692125 0.058914 0.781931
Si237 Si 0.790747 0.558221 0.280398
Si238 Si 0.194413 0.428067 0.704761
Si239 Si 0.692038 0.425898 0.779256
Si240 Si 0.291805 0.558331 0.206266
Si241 Si 0.413463 0.819589 0.675721
Si242 Si 0.571093 0.165525 0.309980
Si243 Si 0.071336 0.165401 0.176051
Si244 Si 0.914982 0.820453 0.809658
Si245 Si 0.571675 0.320297 0.310121
Si246 Si 0.413341 0.665075 0.674926
Si247 Si 0.914374 0.665113 0.809657
Si248 Si 0.071386 0.320148 0.176171
Si249 Si 0.308417 0.866977 0.829067
Si250 Si 0.677439 0.118935 0.158115
Si251 Si 0.177503 0.119107 0.328529
Si252 Si 0.808397 0.866812 0.656622
Si253 Si 0.677932 0.367660 0.158144
Si254 Si 0.308357 0.617952 0.828938
Si255 Si 0.807721 0.617704 0.657397
Si256 Si 0.177715 0.366520 0.328444
Si257 Si 0.265789 0.819663 0.036991
Si258 Si 0.720313 0.166293 0.950087
Si259 Si 0.222765 0.165891 0.535778
Si260 Si 0.763102 0.819796 0.449740
Si261 Si 0.720300 0.320537 0.950238
Si262 Si 0.265317 0.665343 0.036466
Si263 Si 0.763052 0.664810 0.450096
Si264 Si 0.222739 0.320087 0.535755
Si265 Si 0.110791 0.820161 0.019101
Si266 Si 0.875446 0.166106 0.966374
Si267 Si 0.377035 0.165275 0.517158
Si268 Si 0.608704 0.820311 0.468461
Si269 Si 0.875352 0.321460 0.967624
Si270 Si 0.110592 0.665200 0.018576
Si271 Si 0.608562 0.664657 0.468142
Si272 Si 0.377043 0.320221 0.516309
Si273 Si 0.061249 0.869677 0.806501
Si274 Si 0.924872 0.116015 0.177825
Si275 Si 0.425980 0.115084 0.307645
Si276 Si 0.558908 0.870529 0.677067
Si277 Si 0.925291 0.371107 0.178625
Si278 Si 0.060561 0.615874 0.806657
Si279 Si 0.558926 0.614079 0.676854
Si280 Si 0.426533 0.370512 0.307067
Si281 Si 0.188325 0.820995 0.699001
Si282 Si 0.798337 0.164856 0.286544
Si283 Si 0.298908 0.164944 0.199197
Si284 Si 0.686397 0.820358 0.785600
Si285 Si 0.798355 0.321441 0.286793
Si286 Si 0.188107 0.664120 0.699191
Si287 Si 0.685701 0.664436 0.785645
Si288 Si 0.299335 0.320500 0.199304
