# CIF file generated from MOR0.in
data_generated_cif
_audit_creation_method 'Generated by cp2k_to_cif'
_cell_length_a 18.256000
_cell_length_b 20.534000
_cell_length_c 7.542000
_cell_angle_alpha 90.000000
_cell_angle_beta 90.000000
_cell_angle_gamma 90.000000
loop_
_symmetry_equiv_pos_as_xyz
'x, y, z'
loop_
_atom_site_label
_atom_site_type_symbol
_atom_site_fract_x
_atom_site_fract_y
_atom_site_fract_z
O1 O 0.278817 0.000004 -0.000164
O2 O 0.721182 -0.000013 0.000152
O3 O 0.721181 1.000015 0.500140
O4 O 0.278815 1.000025 0.500393
O5 O 0.778628 0.499997 0.000024
O6 O 0.221376 0.499988 0.000029
O7 O 0.221376 0.500009 0.500046
O8 O 0.778622 0.500002 0.499978
O9 O 0.327583 0.080036 0.250006
O10 O 0.672395 0.919939 0.750018
O11 O 0.672396 0.080062 0.250020
O12 O 0.327622 0.919915 0.750015
O13 O 0.826875 0.580299 0.250006
O14 O 0.173127 0.419706 0.750009
O15 O 0.173123 0.580290 0.250022
O16 O 0.826875 0.419711 0.749994
O17 O 0.377677 0.091391 0.927892
O18 O 0.622312 0.908609 0.072134
O19 O 0.622314 0.908625 0.427887
O20 O 0.377699 0.091386 0.572113
O21 O 0.622309 0.091386 0.572131
O22 O 0.377674 0.908631 0.427878
O23 O 0.377684 0.908618 0.072129
O24 O 0.622322 0.091381 0.927881
O25 O 0.877305 0.591387 0.927266
O26 O 0.122662 0.408625 0.072746
O27 O 0.122671 0.408671 0.427301
O28 O 0.877373 0.591313 0.572703
O29 O 0.122615 0.591345 0.572723
O30 O 0.877331 0.408640 0.427283
O31 O 0.877349 0.408650 0.072721
O32 O 0.122697 0.591352 0.927291
O33 O 0.238024 0.121138 0.996549
O34 O 0.761973 0.878866 0.003449
O35 O 0.761954 0.878873 0.496541
O36 O 0.238044 0.121137 0.503457
O37 O 0.761964 0.121128 0.503448
O38 O 0.238036 0.878872 0.496541
O39 O 0.238034 0.878871 0.003457
O40 O 0.761965 0.121124 0.996551
O41 O 0.738297 0.622007 0.996369
O42 O 0.261701 0.377979 0.003631
O43 O 0.261722 0.377979 0.496397
O44 O 0.738289 0.622023 0.503609
O45 O 0.261703 0.622026 0.503606
O46 O 0.738281 0.377977 0.496395
O47 O 0.738308 0.377986 0.003632
O48 O 0.261700 0.622007 0.996371
O49 O 0.326668 0.307473 0.250038
O50 O 0.673330 0.692524 0.749950
O51 O 0.673330 0.307475 0.250033
O52 O 0.326669 0.692525 0.749954
O53 O 0.827006 0.808801 0.249984
O54 O 0.172994 0.191201 0.749998
O55 O 0.172996 0.808799 0.250003
O56 O 0.827009 0.191194 0.749988
O57 O 0.250932 0.249440 -0.003021
O58 O 0.749087 0.750568 0.003021
O59 O 0.749037 0.750573 0.496922
O60 O 0.250978 0.249456 0.503055
O61 O 0.749044 0.249430 0.503061
O62 O 0.250976 0.750567 0.496928
O63 O 0.250914 0.750567 0.003019
O64 O 0.749086 0.249420 -0.003031
O65 O 0.377615 0.306617 0.927392
O66 O 0.622402 0.693384 0.072595
O67 O 0.622249 0.693362 0.427248
O68 O 0.377734 0.306634 0.572728
O69 O 0.622261 0.306622 0.572703
O70 O 0.377761 0.693370 0.427268
O71 O 0.377586 0.693379 0.072612
O72 O 0.622391 0.306638 0.927355
O73 O 0.876737 0.805926 0.926588
O74 O 0.123272 0.194062 0.073379
O75 O 0.123306 0.194020 0.426642
O76 O 0.876701 0.805994 0.573395
O77 O 0.123292 0.805956 0.573395
O78 O 0.876718 0.194050 0.426614
O79 O 0.876735 0.194038 0.073412
O80 O 0.123274 0.805971 0.926610
O81 O 0.999997 0.402567 0.250029
O82 O -0.000002 0.597430 0.750662
O83 O 0.499998 0.900970 0.250029
O84 O 0.500004 0.099033 0.750022
O85 O 0.091151 0.301434 0.250505
O86 O 0.908816 0.698543 0.749188
O87 O 0.908844 0.301466 0.249950
O88 O 0.091180 0.698559 0.749997
O89 O 0.593543 0.801285 0.250101
O90 O 0.406459 0.198724 0.749918
O91 O 0.406455 0.801281 0.250097
O92 O 0.593542 0.198722 0.749974
O93 O -0.000056 0.200190 0.249976
O94 O 0.999993 0.799829 0.750040
O95 O 0.499999 0.701535 0.248171
O96 O 0.499998 0.298517 0.751410
Si97 Si 0.305670 0.073428 0.043294
Si98 Si 0.694310 0.926565 0.956711
Si99 Si 0.694309 0.926574 0.543324
Si100 Si 0.305689 0.073429 0.456746
Si101 Si 0.694300 0.073434 0.456720
Si102 Si 0.305686 0.926572 0.543340
Si103 Si 0.305690 0.926568 0.956681
Si104 Si 0.694316 0.073428 0.043319
Si105 Si 0.805333 0.573581 0.043085
Si106 Si 0.194652 0.426417 0.956950
Si107 Si 0.194670 0.426421 0.543080
Si108 Si 0.805341 0.573586 0.456942
Si109 Si 0.194651 0.573591 0.456964
Si110 Si 0.805332 0.426416 0.543064
Si111 Si 0.805346 0.426420 0.956940
Si112 Si 0.194672 0.573573 0.043098
Si113 Si 0.303517 0.310320 0.043925
Si114 Si 0.696493 0.689682 0.956063
Si115 Si 0.696416 0.689687 0.543790
Si116 Si 0.303577 0.310321 0.456192
Si117 Si 0.696425 0.310314 0.456188
Si118 Si 0.303589 0.689687 0.543789
Si119 Si 0.303504 0.689684 0.956065
Si120 Si 0.696486 0.310314 0.043908
Si121 Si 0.803087 0.810914 0.044519
Si122 Si 0.196930 0.189102 0.955463
Si123 Si 0.196966 0.189120 0.544551
Si124 Si 0.803058 0.810919 0.455456
Si125 Si 0.196949 0.810908 0.455468
Si126 Si 0.803067 0.189083 0.544526
Si127 Si 0.803095 0.189067 0.955462
Si128 Si 0.196917 0.810918 0.044528
Si129 Si 0.084692 0.379912 0.250066
Si130 Si 0.915313 0.620077 0.749984
Si131 Si 0.915319 0.379929 0.250001
Si132 Si 0.084688 0.620080 0.750079
Si133 Si 0.585031 0.879531 0.250017
Si134 Si 0.414966 0.120468 0.750001
Si135 Si 0.414963 0.879532 0.250015
Si136 Si 0.585031 0.120470 0.750013
Si137 Si 0.084707 0.222847 0.250046
Si138 Si 0.915258 0.777109 0.749928
Si139 Si 0.915227 0.222915 0.250011
Si140 Si 0.084732 0.777133 0.750017
Si141 Si 0.584950 0.722866 0.249775
Si142 Si 0.415058 0.277137 0.750169
Si143 Si 0.415047 0.722870 0.249786
Si144 Si 0.584948 0.277137 0.750165
