# CIF file generated from MOR1.in
data_generated_cif
_audit_creation_method 'Generated by cp2k_to_cif'
_cell_length_a 17.982160
_cell_length_b 20.225990
_cell_length_c 7.428870
_cell_angle_alpha 90.000000
_cell_angle_beta 90.000000
_cell_angle_gamma 90.000000
loop_
_symmetry_equiv_pos_as_xyz
'x, y, z'
loop_
_atom_site_label
_atom_site_type_symbol
_atom_site_fract_x
_atom_site_fract_y
_atom_site_fract_z
O1 O 0.276928 0.008567 -0.014908
O2 O 0.738387 0.008634 -0.010125
O3 O 0.738483 1.008719 0.526152
O4 O 0.276370 1.010381 0.533110
O5 O 0.784031 0.506675 -0.017461
O6 O 0.231954 0.506835 -0.014286
O7 O 0.232041 0.506869 0.525768
O8 O 0.784329 0.506242 0.532671
O9 O 0.341674 0.069421 0.257550
O10 O 0.679377 0.923302 0.757246
O11 O 0.673579 0.073156 0.257611
O12 O 0.333697 0.920330 0.755406
O13 O 0.830445 0.580800 0.257894
O14 O 0.193838 0.411514 0.757070
O15 O 0.187041 0.584160 0.255989
O16 O 0.823416 0.410345 0.758902
O17 O 0.389357 0.091607 0.937795
O18 O 0.626201 0.929552 0.078297
O19 O 0.627293 0.928124 0.434180
O20 O 0.386415 0.094240 0.579513
O21 O 0.629919 0.094407 0.579788
O22 O 0.386677 0.929953 0.433678
O23 O 0.388530 0.927972 0.076197
O24 O 0.627100 0.092313 0.937817
O25 O 0.883567 0.601200 0.938585
O26 O 0.130948 0.418240 0.075192
O27 O 0.132991 0.415854 0.437947
O28 O 0.883273 0.601740 0.577347
O29 O 0.130509 0.599664 0.574541
O30 O 0.885848 0.417669 0.440973
O31 O 0.886245 0.420140 0.077640
O32 O 0.132109 0.601481 0.936967
O33 O 0.255864 0.135711 1.035443
O34 O 0.763933 0.883713 0.027711
O35 O 0.764608 0.883842 0.489122
O36 O 0.254062 0.137392 0.468603
O37 O 0.764652 0.134585 0.477031
O38 O 0.248232 0.886508 0.481205
O39 O 0.250064 0.884145 0.029627
O40 O 0.761927 0.135011 1.030798
O41 O 0.738920 0.625344 1.002767
O42 O 0.274565 0.387974 0.051534
O43 O 0.277508 0.388437 0.467058
O44 O 0.738963 0.625263 0.511955
O45 O 0.274308 0.627429 0.517912
O46 O 0.741473 0.387584 0.466828
O47 O 0.742777 0.387672 0.052487
O48 O 0.276712 0.625623 0.994464
O49 O 0.326569 0.292014 0.255781
O50 O 0.676439 0.702046 0.757110
O51 O 0.687416 0.293597 0.256880
O52 O 0.338691 0.705361 0.756805
O53 O 0.840212 0.813034 0.257818
O54 O 0.179877 0.178909 0.755289
O55 O 0.173258 0.812366 0.256113
O56 O 0.838772 0.181340 0.756324
O57 O 0.249853 0.264001 -0.037650
O58 O 0.761034 0.753254 0.009440
O59 O 0.761051 0.753042 0.504634
O60 O 0.248494 0.265064 0.548420
O61 O 0.764992 0.262874 0.547677
O62 O 0.256127 0.755873 0.501994
O63 O 0.254446 0.753246 0.013265
O64 O 0.764085 0.263197 -0.036421
O65 O 0.385737 0.315858 0.936785
O66 O 0.626178 0.702647 0.078231
O67 O 0.626700 0.702983 0.433435
O68 O 0.386437 0.311648 0.573874
O69 O 0.629933 0.314160 0.577016
O70 O 0.388948 0.702325 0.433874
O71 O 0.389477 0.702711 0.078546
O72 O 0.629917 0.316385 0.937751
O73 O 0.885439 0.818246 0.936384
O74 O 0.130793 0.198432 0.077525
O75 O 0.128091 0.200701 0.436441
O76 O 0.884670 0.817894 0.581775
O77 O 0.130602 0.818226 0.580594
O78 O 0.887090 0.201525 0.434413
O79 O 0.885629 0.200701 0.077101
O80 O 0.130803 0.818000 0.931368
O81 O 1.009013 0.412428 0.260401
O82 O 0.007555 0.603775 0.756548
O83 O 0.506967 0.895584 0.259123
O84 O 0.508391 0.111514 0.753611
O85 O 0.101720 0.309182 0.250357
O86 O 0.917714 0.708437 0.761310
O87 O 0.914958 0.310303 0.252705
O88 O 0.098542 0.707961 0.754810
O89 O 0.625190 0.816056 0.253309
O90 O 0.402335 0.203667 0.764493
O91 O 0.389767 0.815940 0.258951
O92 O 0.613686 0.204340 0.764138
O93 O 0.008031 0.206853 0.251884
O94 O 1.007823 0.812576 0.756659
O95 O 0.507697 0.736731 0.259027
O96 O 0.508049 0.297512 0.757388
Si97 Si 0.315108 0.076795 0.052298
Si98 Si 0.702338 0.935922 0.963426
Si99 Si 0.702531 0.935880 0.551092
Si100 Si 0.313655 0.078432 0.461150
Si101 Si 0.702519 0.078117 0.461428
Si102 Si 0.311151 0.936629 0.550619
Si103 Si 0.312257 0.935257 0.961736
Si104 Si 0.701154 0.077719 0.052737
Si105 Si 0.809743 0.579187 0.046591
Si106 Si 0.207354 0.430829 0.966340
Si107 Si 0.208694 0.430516 0.547891
Si108 Si 0.809648 0.578923 0.469284
Si109 Si 0.205503 0.579845 0.467759
Si110 Si 0.809371 0.430149 0.550407
Si111 Si 0.809792 0.430730 0.967037
Si112 Si 0.206291 0.579942 0.044309
Si113 Si 0.309291 0.314466 0.051043
Si114 Si 0.701761 0.696188 0.963122
Si115 Si 0.701669 0.696158 0.550835
Si116 Si 0.309721 0.313989 0.461282
Si117 Si 0.706163 0.314243 0.462287
Si118 Si 0.313558 0.697897 0.550963
Si119 Si 0.313923 0.696924 0.962518
Si120 Si 0.706238 0.314873 0.052128
Si121 Si 0.811148 0.817061 0.055028
Si122 Si 0.205035 0.194592 0.958749
Si123 Si 0.203488 0.195850 0.551421
Si124 Si 0.811091 0.816820 0.460822
Si125 Si 0.203638 0.818044 0.457729
Si126 Si 0.812975 0.195484 0.552919
Si127 Si 0.811517 0.195471 0.958535
Si128 Si 0.203748 0.816961 0.054611
Si129 Si 0.094305 0.388668 0.256263
Si130 Si 0.922524 0.629004 0.758337
Si131 Si 0.923261 0.389783 0.257970
Si132 Si 0.092829 0.628438 0.755932
Si133 Si 0.595919 0.892052 0.255856
Si134 Si 0.421348 0.125827 0.758631
Si135 Si 0.417881 0.892402 0.257368
Si136 Si 0.595351 0.126285 0.758565
Si137 Si 0.092959 0.229846 0.254037
Si138 Si 0.923394 0.787963 0.758711
Si139 Si 0.923529 0.230923 0.254371
Si140 Si 0.092050 0.787499 0.755846
Si141 Si 0.596410 0.739923 0.255815
Si142 Si 0.420679 0.281877 0.758292
Si143 Si 0.418962 0.739791 0.256819
Si144 Si 0.595508 0.282696 0.758752
