# CIF file generated from MOR2.in
data_generated_cif
_audit_creation_method 'Generated by cp2k_to_cif'
_cell_length_a 17.708320
_cell_length_b 19.917980
_cell_length_c 7.315740
_cell_angle_alpha 90.000000
_cell_angle_beta 90.000000
_cell_angle_gamma 90.000000
loop_
_symmetry_equiv_pos_as_xyz
'x, y, z'
loop_
_atom_site_label
_atom_site_type_symbol
_atom_site_fract_x
_atom_site_fract_y
_atom_site_fract_z
O1 O 0.270284 0.013427 -0.006529
O2 O 0.760356 0.013243 -0.009028
O3 O 0.745335 1.022899 0.560036
O4 O 0.285638 1.023531 0.559047
O5 O 0.793690 0.515017 -0.031359
O6 O 0.237376 0.515256 -0.015280
O7 O 0.238027 0.514814 0.545708
O8 O 0.790475 0.513617 0.555170
O9 O 0.351271 0.068391 0.259594
O10 O 0.698360 0.920976 0.765787
O11 O 0.681076 0.067177 0.258671
O12 O 0.334743 0.924269 0.766747
O13 O 0.836808 0.582829 0.263896
O14 O 0.206906 0.412959 0.767147
O15 O 0.200876 0.593658 0.265237
O16 O 0.824966 0.409896 0.765492
O17 O 0.389371 0.085735 0.922525
O18 O 0.645147 0.937771 0.091810
O19 O 0.627532 0.949977 0.456684
O20 O 0.406321 0.103311 0.567025
O21 O 0.625294 0.103743 0.566142
O22 O 0.402825 0.949918 0.456477
O23 O 0.385873 0.937983 0.092782
O24 O 0.642320 0.088464 0.923959
O25 O 0.885244 0.620970 0.945812
O26 O 0.138996 0.422762 0.083716
O27 O 0.139894 0.422212 0.450240
O28 O 0.892557 0.609106 0.580541
O29 O 0.136541 0.610431 0.578937
O30 O 0.892211 0.424818 0.450812
O31 O 0.893268 0.425452 0.082125
O32 O 0.144600 0.618867 0.944660
O33 O 0.267365 0.145511 1.063056
O34 O 0.783714 0.884836 0.035422
O35 O 0.762506 0.896974 0.447955
O36 O 0.272315 0.151278 0.462404
O37 O 0.758617 0.150782 0.462583
O38 O 0.267725 0.896853 0.453280
O39 O 0.246961 0.885170 0.030406
O40 O 0.766023 0.145256 1.064244
O41 O 0.738400 0.631549 1.020605
O42 O 0.285840 0.396466 0.071059
O43 O 0.288152 0.397395 0.467426
O44 O 0.745017 0.633460 0.519851
O45 O 0.285794 0.634443 0.544809
O46 O 0.744788 0.396285 0.461383
O47 O 0.747697 0.396300 0.072537
O48 O 0.293127 0.632748 0.999995
O49 O 0.331128 0.292120 0.269025
O50 O 0.695423 0.719752 0.768545
O51 O 0.699056 0.292178 0.265005
O52 O 0.335571 0.728297 0.767449
O53 O 0.865664 0.824486 0.285896
O54 O 0.194677 0.175987 0.763538
O55 O 0.165518 0.827239 0.283524
O56 O 0.836909 0.177252 0.761095
O57 O 0.254479 0.273729 -0.034778
O58 O 0.789718 0.754218 0.032890
O59 O 0.766163 0.762407 0.475456
O60 O 0.248783 0.276532 0.566111
O61 O 0.778695 0.276152 0.568117
O62 O 0.263591 0.761819 0.467785
O63 O 0.239280 0.753649 0.035079
O64 O 0.773544 0.272948 -0.041234
O65 O 0.395843 0.322534 0.953614
O66 O 0.641714 0.726288 0.090365
O67 O 0.629274 0.711251 0.450234
O68 O 0.393070 0.316442 0.587675
O69 O 0.635672 0.319049 0.582725
O70 O 0.400631 0.710607 0.449534
O71 O 0.388749 0.725811 0.090354
O72 O 0.634953 0.324733 0.950576
O73 O 0.916565 0.822365 0.967434
O74 O 0.136299 0.205115 0.077379
O75 O 0.136280 0.202420 0.446350
O76 O 0.867208 0.840312 0.642766
O77 O 0.161247 0.838699 0.639121
O78 O 0.892584 0.204378 0.442292
O79 O 0.894336 0.208012 0.073871
O80 O 0.113554 0.824732 0.966285
O81 O 1.016318 0.422153 0.268093
O82 O 0.014450 0.614673 0.781221
O83 O 0.515241 0.914188 0.241698
O84 O 0.516021 0.130176 0.794244
O85 O 0.104192 0.313249 0.266738
O86 O 0.927571 0.722200 0.733513
O87 O 0.925891 0.315656 0.267590
O88 O 0.102093 0.721948 0.739608
O89 O 0.630056 0.831729 0.303859
O90 O 0.394820 0.206998 0.789195
O91 O 0.399626 0.831697 0.303139
O92 O 0.635848 0.208992 0.781524
O93 O 0.014430 0.206227 0.261946
O94 O 1.014406 0.828522 0.696574
O95 O 0.514875 0.749900 0.249936
O96 O 0.515084 0.288392 0.765613
Si97 Si 0.318015 0.078843 0.057555
Si98 Si 0.722370 0.939152 0.972929
Si99 Si 0.708847 0.947708 0.560498
Si100 Si 0.327465 0.087378 0.464227
Si101 Si 0.703847 0.086726 0.463743
Si102 Si 0.321831 0.948424 0.560819
Si103 Si 0.308907 0.939719 0.973561
Si104 Si 0.713991 0.079222 0.056928
Si105 Si 0.814123 0.587751 0.050785
Si106 Si 0.216887 0.436877 0.976299
Si107 Si 0.217427 0.436640 0.558313
Si108 Si 0.816373 0.585742 0.478189
Si109 Si 0.214713 0.589017 0.481589
Si110 Si 0.813681 0.435707 0.558421
Si111 Si 0.815252 0.436650 0.972342
Si112 Si 0.218062 0.590278 0.049619
Si113 Si 0.317029 0.320605 0.064806
Si114 Si 0.717261 0.708796 0.979219
Si115 Si 0.709268 0.706577 0.555439
Si116 Si 0.315605 0.320318 0.473031
Si117 Si 0.713797 0.320276 0.469417
Si118 Si 0.321234 0.708446 0.557902
Si119 Si 0.313458 0.711054 0.975374
Si120 Si 0.713720 0.321399 0.061773
Si121 Si 0.837430 0.821860 0.077098
Si122 Si 0.214351 0.200646 0.967575
Si123 Si 0.213529 0.201516 0.560171
Si124 Si 0.814405 0.830783 0.465972
Si125 Si 0.215501 0.830724 0.465383
Si126 Si 0.816207 0.202307 0.558360
Si127 Si 0.816517 0.201327 0.964829
Si128 Si 0.192861 0.822689 0.074663
Si129 Si 0.100963 0.393850 0.267136
Si130 Si 0.929164 0.641890 0.761530
Si131 Si 0.930693 0.396361 0.266728
Si132 Si 0.099974 0.641419 0.762490
Si133 Si 0.604552 0.908862 0.273003
Si134 Si 0.427038 0.131340 0.767023
Si135 Si 0.426161 0.908761 0.273749
Si136 Si 0.604924 0.132707 0.765250
Si137 Si 0.099202 0.232599 0.263290
Si138 Si 0.931870 0.802486 0.757534
Si139 Si 0.930491 0.235030 0.261415
Si140 Si 0.096766 0.802252 0.758482
Si141 Si 0.604204 0.754677 0.274331
Si142 Si 0.425278 0.283725 0.773599
Si143 Si 0.425941 0.754749 0.274594
Si144 Si 0.605259 0.285756 0.770383
