# CIF file generated from MOR3.in
data_generated_cif
_audit_creation_method 'Generated by cp2k_to_cif'
_cell_length_a 18.529840
_cell_length_b 20.842010
_cell_length_c 7.655130
_cell_angle_alpha 90.000000
_cell_angle_beta 90.000000
_cell_angle_gamma 90.000000
loop_
_symmetry_equiv_pos_as_xyz
'x, y, z'
loop_
_atom_site_label
_atom_site_type_symbol
_atom_site_fract_x
_atom_site_fract_y
_atom_site_fract_z
O1 O 0.276174 -0.007768 -0.003816
O2 O 0.707361 -0.007754 -0.003764
O3 O 0.707472 0.992240 0.489795
O4 O 0.275980 0.992264 0.489667
O5 O 0.773386 0.492139 -0.003750
O6 O 0.212463 0.492314 -0.003931
O7 O 0.212791 0.492273 0.489862
O8 O 0.773236 0.492250 0.489660
O9 O 0.318439 0.074052 0.243036
O10 O 0.667557 0.912423 0.742800
O11 O 0.667455 0.074434 0.243039
O12 O 0.318475 0.913025 0.742280
O13 O 0.818564 0.572314 0.241780
O14 O 0.167501 0.414774 0.743225
O15 O 0.167392 0.572199 0.242667
O16 O 0.818463 0.414759 0.743099
O17 O 0.368538 0.086932 0.919099
O18 O 0.615747 0.897190 0.066235
O19 O 0.615470 0.898007 0.418688
O20 O 0.369148 0.085266 0.567776
O21 O 0.615659 0.086323 0.567248
O22 O 0.369350 0.899035 0.418203
O23 O 0.368228 0.897253 0.066279
O24 O 0.616019 0.087175 0.918865
O25 O 0.868483 0.583790 0.915240
O26 O 0.115597 0.400595 0.067426
O27 O 0.115694 0.401610 0.419370
O28 O 0.870315 0.582419 0.565611
O29 O 0.115617 0.582472 0.566777
O30 O 0.870077 0.401586 0.419241
O31 O 0.870369 0.400669 0.067150
O32 O 0.115683 0.583622 0.918262
O33 O 0.230679 0.113260 0.990216
O34 O 0.754081 0.871267 -0.004147
O35 O 0.753782 0.871152 0.489399
O36 O 0.231405 0.113381 0.496578
O37 O 0.754069 0.113255 0.497164
O38 O 0.231593 0.871040 0.489930
O39 O 0.230559 0.871030 -0.010260
O40 O 0.754362 0.113196 0.989377
O41 O 0.732538 0.615215 0.989841
O42 O 0.251489 0.369063 -0.004782
O43 O 0.251441 0.368999 0.490643
O44 O 0.734269 0.615534 0.496096
O45 O 0.251585 0.615554 0.496478
O46 O 0.734226 0.368836 0.490638
O47 O 0.734347 0.368893 -0.004723
O48 O 0.251854 0.615576 0.989314
O49 O 0.316366 0.302100 0.242522
O50 O 0.668048 0.682755 0.741032
O51 O 0.667887 0.302895 0.242202
O52 O 0.317750 0.682913 0.741558
O53 O 0.815595 0.801052 0.241441
O54 O 0.170334 0.183758 0.743588
O55 O 0.170430 0.801747 0.240470
O56 O 0.815449 0.184105 0.743668
O57 O 0.243537 0.241019 -0.003653
O58 O 0.740520 0.743593 -0.010242
O59 O 0.740347 0.743523 0.490319
O60 O 0.243551 0.241053 0.489791
O61 O 0.740403 0.240769 0.489807
O62 O 0.245258 0.743598 0.490201
O63 O 0.243610 0.743275 -0.010693
O64 O 0.740430 0.240727 -0.003691
O65 O 0.367028 0.298613 0.916161
O66 O 0.616949 0.686057 0.065996
O67 O 0.617657 0.684944 0.414726
O68 O 0.367544 0.298878 0.566692
O69 O 0.616950 0.298954 0.565893
O70 O 0.367982 0.684924 0.415528
O71 O 0.367786 0.686312 0.066138
O72 O 0.617928 0.299091 0.914810
O73 O 0.866974 0.796487 0.915064
O74 O 0.117633 0.187594 0.070041
O75 O 0.117480 0.186794 0.419488
O76 O 0.867100 0.796640 0.565779
O77 O 0.118172 0.796446 0.565108
O78 O 0.867380 0.187594 0.419690
O79 O 0.867056 0.188009 0.070188
O80 O 0.117569 0.796639 0.914823
O81 O 0.992940 0.390311 0.245506
O82 O -0.007363 0.594057 0.741336
O83 O 0.492023 0.889448 0.239973
O84 O 0.492180 0.095874 0.743872
O85 O 0.087792 0.294164 0.246405
O86 O 0.898220 0.690083 0.739558
O87 O 0.898217 0.294351 0.246270
O88 O 0.087745 0.689995 0.739650
O89 O 0.585094 0.791957 0.246044
O90 O 0.398321 0.192445 0.739747
O91 O 0.398391 0.792093 0.246219
O92 O 0.585152 0.192695 0.739935
O93 O -0.007536 0.198197 0.245724
O94 O 0.992559 0.786182 0.739654
O95 O 0.492343 0.695378 0.239973
O96 O 0.492133 0.289352 0.742692
Si97 Si 0.298633 0.066589 0.036648
Si98 Si 0.686034 0.918124 0.950418
Si99 Si 0.685883 0.918186 0.535066
Si100 Si 0.298942 0.066385 0.449527
Si101 Si 0.685973 0.066728 0.449916
Si102 Si 0.298973 0.918557 0.535150
Si103 Si 0.298530 0.918382 0.949078
Si104 Si 0.686091 0.066830 0.036211
Si105 Si 0.798363 0.566039 0.035268
Si106 Si 0.186569 0.419094 0.950733
Si107 Si 0.186812 0.419230 0.535901
Si108 Si 0.799075 0.565730 0.448498
Si109 Si 0.186784 0.565734 0.449319
Si110 Si 0.798944 0.419127 0.535786
Si111 Si 0.799272 0.418978 0.950632
Si112 Si 0.186680 0.565991 0.035833
Si113 Si 0.294438 0.302693 0.036762
Si114 Si 0.689941 0.681797 0.947108
Si115 Si 0.690308 0.681635 0.535158
Si116 Si 0.294412 0.302716 0.448210
Si117 Si 0.690265 0.302954 0.447895
Si118 Si 0.295298 0.681745 0.535735
Si119 Si 0.294874 0.681937 0.947050
Si120 Si 0.690300 0.302982 0.036443
Si121 Si 0.794210 0.803065 0.034924
Si122 Si 0.190508 0.181329 0.950591
Si123 Si 0.190868 0.181201 0.536927
Si124 Si 0.793981 0.803185 0.447597
Si125 Si 0.191438 0.803159 0.447182
Si126 Si 0.794042 0.181456 0.537188
Si127 Si 0.794280 0.181499 0.950379
Si128 Si 0.190619 0.803206 0.033359
Si129 Si 0.078314 0.371685 0.244277
Si130 Si 0.907249 0.612612 0.740682
Si131 Si 0.907563 0.371806 0.244135
Si132 Si 0.078132 0.612500 0.741723
Si133 Si 0.577257 0.869441 0.242717
Si134 Si 0.406834 0.114972 0.742773
Si135 Si 0.406833 0.869585 0.242596
Si136 Si 0.577495 0.115221 0.742711
Si137 Si 0.078556 0.216506 0.245208
Si138 Si 0.906488 0.767725 0.740298
Si139 Si 0.906487 0.216718 0.245098
Si140 Si 0.078645 0.767624 0.739775
Si141 Si 0.577955 0.714373 0.241518
Si142 Si 0.406507 0.270020 0.741563
Si143 Si 0.406796 0.714551 0.241645
Si144 Si 0.577887 0.270299 0.741061
