# CIF file generated from NPT0.in
data_generated_cif
_audit_creation_method 'Generated by cp2k_to_cif'
_cell_length_a 13.883000
_cell_length_b 13.883000
_cell_length_c 13.883000
_cell_angle_alpha 90.000000
_cell_angle_beta 90.000000
_cell_angle_gamma 90.000000
loop_
_symmetry_equiv_pos_as_xyz
'x, y, z'
loop_
_atom_site_label
_atom_site_type_symbol
_atom_site_fract_x
_atom_site_fract_y
_atom_site_fract_z
O1 O 0.276972 0.276972 0.500000
O2 O -0.276972 0.276972 0.500000
O3 O -0.276972 -0.276972 0.500000
O4 O 0.276972 -0.276972 0.500000
O5 O 0.500000 0.276972 0.276972
O6 O 0.500000 -0.276972 0.276972
O7 O 0.500000 -0.276972 -0.276972
O8 O 0.500000 0.276972 -0.276972
O9 O -0.276972 0.500000 0.276972
O10 O 0.276972 0.500000 0.276972
O11 O 0.276972 0.500000 -0.276972
O12 O -0.276972 0.500001 -0.276972
O13 O 0.334374 0.199957 0.334375
O14 O -0.199957 0.334374 0.334375
O15 O -0.334375 -0.199957 0.334374
O16 O 0.199957 -0.334375 0.334375
O17 O 0.334375 -0.199957 -0.334374
O18 O -0.199957 -0.334375 -0.334374
O19 O -0.334375 0.199957 -0.334374
O20 O 0.199957 0.334374 -0.334375
O21 O 0.334374 0.334375 0.199957
O22 O 0.334375 -0.199957 0.334375
O23 O 0.334375 -0.334374 -0.199957
O24 O 0.334375 0.199957 -0.334375
O25 O -0.334375 0.334374 -0.199957
O26 O -0.334375 -0.199957 -0.334374
O27 O -0.334375 -0.334374 0.199957
O28 O -0.334374 0.199957 0.334375
O29 O -0.334374 0.334375 0.199957
O30 O 0.199957 0.334375 0.334374
O31 O 0.334375 0.334374 -0.199957
O32 O -0.199957 0.334374 -0.334375
O33 O -0.334375 -0.334374 -0.199957
O34 O 0.199957 -0.334375 -0.334374
O35 O 0.334375 -0.334375 0.199957
O36 O -0.199957 -0.334375 0.334374
O37 O 0.161045 0.161044 0.404135
O38 O -0.161044 0.161045 0.404135
O39 O -0.161046 -0.161045 0.404134
O40 O 0.161046 -0.161045 0.404135
O41 O 0.161044 -0.161045 -0.404135
O42 O -0.161044 -0.161045 -0.404135
O43 O -0.161045 0.161045 -0.404135
O44 O 0.161045 0.161045 -0.404134
O45 O 0.404135 0.161044 0.161045
O46 O 0.404135 -0.161044 0.161046
O47 O 0.404134 -0.161045 -0.161046
O48 O 0.404135 0.161045 -0.161045
O49 O -0.404135 0.161045 -0.161045
O50 O -0.404135 -0.161045 -0.161044
O51 O -0.404135 -0.161046 0.161044
O52 O -0.404134 0.161046 0.161045
O53 O -0.161043 0.404135 0.161046
O54 O 0.161044 0.404136 0.161045
O55 O 0.161045 0.404135 -0.161045
O56 O -0.161045 0.404135 -0.161046
O57 O -0.161045 -0.404135 -0.161044
O58 O 0.161045 -0.404134 -0.161045
O59 O 0.161047 -0.404134 0.161045
O60 O -0.161046 -0.404134 0.161044
O61 O 0.135315 0.000000 0.500005
O62 O 0.000000 0.135315 0.500005
O63 O -0.135315 0.000000 0.499999
O64 O 0.000000 -0.135315 0.499992
O65 O 0.499998 0.135315 -0.000000
O66 O 0.500013 -0.000000 0.135315
O67 O 0.499988 -0.135315 -0.000000
O68 O 0.500004 -0.000000 -0.135315
O69 O -0.135315 0.499989 0.000001
O70 O 0.000000 0.500018 0.135315
O71 O 0.135315 0.500003 0.000001
O72 O 0.000001 0.500002 -0.135315
Si73 Si 0.243123 0.243122 0.393278
Si74 Si -0.243123 0.243123 0.393278
Si75 Si -0.243123 -0.243123 0.393278
Si76 Si 0.243123 -0.243122 0.393278
Si77 Si 0.243122 -0.243123 -0.393278
Si78 Si -0.243122 -0.243122 -0.393278
Si79 Si -0.243123 0.243123 -0.393278
Si80 Si 0.243123 0.243123 -0.393278
Si81 Si 0.393278 0.243122 0.243122
Si82 Si 0.393278 -0.243122 0.243123
Si83 Si 0.393278 -0.243123 -0.243123
Si84 Si 0.393278 0.243123 -0.243122
Si85 Si -0.393278 0.243123 -0.243123
Si86 Si -0.393278 -0.243123 -0.243122
Si87 Si -0.393278 -0.243123 0.243123
Si88 Si -0.393278 0.243123 0.243123
Si89 Si -0.243122 0.393278 0.243123
Si90 Si 0.243122 0.393278 0.243122
Si91 Si 0.243123 0.393278 -0.243122
Si92 Si -0.243123 0.393278 -0.243123
Si93 Si -0.243122 -0.393278 -0.243122
Si94 Si 0.243123 -0.393278 -0.243123
Si95 Si 0.243123 -0.393278 0.243123
Si96 Si -0.243123 -0.393278 0.243123
Si97 Si 0.113438 0.113438 0.500001
Si98 Si -0.113438 0.113438 0.500001
Si99 Si -0.113438 -0.113438 0.499999
Si100 Si 0.113438 -0.113438 0.500000
Si101 Si 0.500001 0.113438 0.113438
Si102 Si 0.500000 -0.113438 0.113438
Si103 Si 0.499999 -0.113438 -0.113438
Si104 Si 0.500000 0.113438 -0.113438
Si105 Si -0.113438 0.500001 0.113437
Si106 Si 0.113438 0.500003 0.113438
Si107 Si 0.113437 0.500000 -0.113438
Si108 Si -0.113438 0.499999 -0.113438
