# CIF file generated from NPT1.in
data_generated_cif
_audit_creation_method 'Generated by cp2k_to_cif'
_cell_length_a 13.674755
_cell_length_b 13.674755
_cell_length_c 13.674755
_cell_angle_alpha 90.000000
_cell_angle_beta 90.000000
_cell_angle_gamma 90.000000
loop_
_symmetry_equiv_pos_as_xyz
'x, y, z'
loop_
_atom_site_label
_atom_site_type_symbol
_atom_site_fract_x
_atom_site_fract_y
_atom_site_fract_z
O1 O 0.279915 0.279915 0.500000
O2 O -0.279915 0.279915 0.500000
O3 O -0.279915 -0.279915 0.500000
O4 O 0.279915 -0.279915 0.500000
O5 O 0.500000 0.279915 0.279915
O6 O 0.500000 -0.279915 0.279915
O7 O 0.500000 -0.279915 -0.279915
O8 O 0.500000 0.279915 -0.279915
O9 O -0.279915 0.500000 0.279915
O10 O 0.279915 0.500000 0.279915
O11 O 0.279915 0.500000 -0.279915
O12 O -0.279915 0.500000 -0.279915
O13 O 0.334481 0.197071 0.334480
O14 O -0.197070 0.334480 0.334481
O15 O -0.334480 -0.197070 0.334480
O16 O 0.197071 -0.334480 0.334481
O17 O 0.334481 -0.197071 -0.334481
O18 O -0.197072 -0.334481 -0.334481
O19 O -0.334481 0.197072 -0.334481
O20 O 0.197071 0.334481 -0.334480
O21 O 0.334480 0.334481 0.197070
O22 O 0.334480 -0.197071 0.334481
O23 O 0.334481 -0.334481 -0.197071
O24 O 0.334481 0.197072 -0.334481
O25 O -0.334480 0.334480 -0.197070
O26 O -0.334481 -0.197071 -0.334481
O27 O -0.334481 -0.334481 0.197072
O28 O -0.334481 0.197071 0.334481
O29 O -0.334481 0.334481 0.197071
O30 O 0.197072 0.334481 0.334481
O31 O 0.334480 0.334481 -0.197070
O32 O -0.197071 0.334481 -0.334481
O33 O -0.334481 -0.334481 -0.197071
O34 O 0.197071 -0.334481 -0.334481
O35 O 0.334481 -0.334481 0.197072
O36 O -0.197070 -0.334480 0.334481
O37 O 0.160814 0.160814 0.403091
O38 O -0.160814 0.160814 0.403091
O39 O -0.160813 -0.160814 0.403091
O40 O 0.160814 -0.160814 0.403091
O41 O 0.160814 -0.160814 -0.403091
O42 O -0.160814 -0.160814 -0.403091
O43 O -0.160814 0.160814 -0.403090
O44 O 0.160814 0.160814 -0.403090
O45 O 0.403091 0.160814 0.160814
O46 O 0.403091 -0.160814 0.160814
O47 O 0.403090 -0.160814 -0.160814
O48 O 0.403091 0.160814 -0.160814
O49 O -0.403091 0.160814 -0.160814
O50 O -0.403091 -0.160814 -0.160814
O51 O -0.403091 -0.160814 0.160814
O52 O -0.403091 0.160814 0.160814
O53 O -0.160814 0.403091 0.160814
O54 O 0.160813 0.403091 0.160814
O55 O 0.160814 0.403091 -0.160814
O56 O -0.160813 0.403091 -0.160815
O57 O -0.160814 -0.403091 -0.160815
O58 O 0.160814 -0.403091 -0.160814
O59 O 0.160814 -0.403091 0.160814
O60 O -0.160814 -0.403090 0.160814
O61 O 0.136991 -0.000000 0.500000
O62 O 0.000001 0.136990 0.500000
O63 O -0.136991 -0.000000 0.500000
O64 O 0.000001 -0.136990 0.500000
O65 O 0.500000 0.136990 0.000001
O66 O 0.500000 0.000000 0.136990
O67 O 0.500000 -0.136990 0.000001
O68 O 0.500000 0.000000 -0.136990
O69 O -0.136992 0.500000 -0.000000
O70 O 0.000000 0.500000 0.136988
O71 O 0.136992 0.500000 0.000000
O72 O 0.000001 0.500000 -0.136988
Si73 Si 0.243492 0.243491 0.393468
Si74 Si -0.243491 0.243492 0.393468
Si75 Si -0.243491 -0.243491 0.393468
Si76 Si 0.243492 -0.243492 0.393468
Si77 Si 0.243492 -0.243492 -0.393468
Si78 Si -0.243492 -0.243492 -0.393468
Si79 Si -0.243492 0.243492 -0.393468
Si80 Si 0.243492 0.243492 -0.393468
Si81 Si 0.393468 0.243492 0.243491
Si82 Si 0.393468 -0.243492 0.243492
Si83 Si 0.393468 -0.243491 -0.243492
Si84 Si 0.393468 0.243492 -0.243491
Si85 Si -0.393468 0.243492 -0.243491
Si86 Si -0.393468 -0.243491 -0.243491
Si87 Si -0.393468 -0.243491 0.243492
Si88 Si -0.393468 0.243492 0.243492
Si89 Si -0.243491 0.393468 0.243492
Si90 Si 0.243492 0.393468 0.243492
Si91 Si 0.243491 0.393468 -0.243491
Si92 Si -0.243492 0.393468 -0.243491
Si93 Si -0.243492 -0.393468 -0.243491
Si94 Si 0.243492 -0.393468 -0.243492
Si95 Si 0.243492 -0.393468 0.243492
Si96 Si -0.243491 -0.393468 0.243492
Si97 Si 0.113621 0.113622 0.500000
Si98 Si -0.113622 0.113621 0.500000
Si99 Si -0.113622 -0.113621 0.500000
Si100 Si 0.113621 -0.113621 0.500000
Si101 Si 0.500000 0.113621 0.113621
Si102 Si 0.500000 -0.113622 0.113621
Si103 Si 0.500000 -0.113621 -0.113622
Si104 Si 0.500000 0.113621 -0.113622
Si105 Si -0.113622 0.500000 0.113620
Si106 Si 0.113621 0.500000 0.113621
Si107 Si 0.113621 0.500000 -0.113621
Si108 Si -0.113622 0.500000 -0.113621
