# CIF file generated from NPT2.in
data_generated_cif
_audit_creation_method 'Generated by cp2k_to_cif'
_cell_length_a 13.466510
_cell_length_b 13.466510
_cell_length_c 13.466510
_cell_angle_alpha 90.000000
_cell_angle_beta 90.000000
_cell_angle_gamma 90.000000
loop_
_symmetry_equiv_pos_as_xyz
'x, y, z'
loop_
_atom_site_label
_atom_site_type_symbol
_atom_site_fract_x
_atom_site_fract_y
_atom_site_fract_z
O1 O 0.227844 0.320725 0.500809
O2 O -0.316076 0.244240 0.496279
O3 O -0.222144 -0.316330 0.503350
O4 O 0.319726 -0.237465 0.511901
O5 O 0.495372 0.242098 0.303734
O6 O 0.515414 -0.304359 0.259151
O7 O 0.500856 -0.243030 -0.298305
O8 O 0.493843 0.308261 -0.263244
O9 O -0.301538 0.508485 0.242809
O10 O 0.291768 0.490825 0.283802
O11 O 0.289491 0.501957 -0.254636
O12 O -0.255243 0.508688 -0.304414
O13 O 0.310461 0.206452 0.361494
O14 O -0.238453 0.351907 0.347532
O15 O -0.327446 -0.238547 0.355761
O16 O 0.234982 -0.338559 0.365727
O17 O 0.322654 -0.165067 -0.303236
O18 O -0.169235 -0.315739 -0.305292
O19 O -0.352491 0.196930 -0.312112
O20 O 0.177493 0.350928 -0.307607
O21 O 0.343714 0.319556 0.202869
O22 O 0.363906 -0.197804 0.319807
O23 O 0.357333 -0.322697 -0.191818
O24 O 0.331998 0.238641 -0.351741
O25 O -0.322927 0.356635 -0.202056
O26 O -0.318968 -0.205575 -0.365108
O27 O -0.306408 -0.307026 0.173806
O28 O -0.318942 0.177375 0.311069
O29 O -0.362371 0.329389 0.196699
O30 O 0.176650 0.337544 0.306701
O31 O 0.318610 0.322707 -0.174581
O32 O -0.209840 0.322903 -0.359613
O33 O -0.343708 -0.334665 -0.218601
O34 O 0.227196 -0.331279 -0.339955
O35 O 0.329524 -0.344015 0.193210
O36 O -0.177876 -0.360978 0.314191
O37 O 0.119886 0.184853 0.412179
O38 O -0.148737 0.187457 0.412987
O39 O -0.141704 -0.183252 0.383616
O40 O 0.188747 -0.149665 0.395628
O41 O 0.157754 -0.158614 -0.409487
O42 O -0.137530 -0.156508 -0.420637
O43 O -0.192588 0.129935 -0.404242
O44 O 0.150562 0.175324 -0.392294
O45 O 0.380318 0.130033 0.191074
O46 O 0.425222 -0.191458 0.128245
O47 O 0.433465 -0.146263 -0.140401
O48 O 0.408107 0.146172 -0.192053
O49 O -0.417121 0.203697 -0.124180
O50 O -0.375091 -0.141803 -0.187063
O51 O -0.400035 -0.137748 0.196467
O52 O -0.428091 0.152697 0.146521
O53 O -0.174840 0.383397 0.162097
O54 O 0.191393 0.421153 0.128433
O55 O 0.159799 0.430074 -0.125074
O56 O -0.131222 0.402195 -0.196186
O57 O -0.188663 -0.420723 -0.133984
O58 O 0.174628 -0.374984 -0.154177
O59 O 0.142564 -0.406349 0.204896
O60 O -0.157580 -0.424262 0.125963
O61 O 0.161821 0.014996 0.496808
O62 O -0.012218 0.102617 0.531059
O63 O -0.155215 -0.003774 0.453790
O64 O 0.013359 -0.106875 0.469206
O65 O 0.440523 0.148223 0.000789
O66 O 0.477380 -0.011238 0.103547
O67 O 0.572210 -0.143967 0.000574
O68 O 0.538900 0.016585 -0.110718
O69 O -0.100074 0.447749 -0.010011
O70 O 0.002505 0.464728 0.156033
O71 O 0.102756 0.559361 0.015372
O72 O 0.000201 0.542828 -0.151207
Si73 Si 0.208751 0.263758 0.395506
Si74 Si -0.255079 0.240715 0.391922
Si75 Si -0.217371 -0.276304 0.389754
Si76 Si 0.278421 -0.230310 0.398395
Si77 Si 0.256372 -0.223163 -0.385593
Si78 Si -0.210632 -0.248814 -0.396653
Si79 Si -0.268944 0.222767 -0.394358
Si80 Si 0.221663 0.272594 -0.388133
Si81 Si 0.382014 0.224057 0.266781
Si82 Si 0.408230 -0.259831 0.225243
Si83 Si 0.403378 -0.218607 -0.231596
Si84 Si 0.387762 0.252981 -0.245894
Si85 Si -0.399245 0.267094 -0.224898
Si86 Si -0.383851 -0.231449 -0.267573
Si87 Si -0.379771 -0.245553 0.247690
Si88 Si -0.403619 0.224545 0.239369
Si89 Si -0.268999 0.393050 0.237686
Si90 Si 0.251575 0.391576 0.228532
Si91 Si 0.235872 0.401185 -0.214123
Si92 Si -0.228962 0.397005 -0.266916
Si93 Si -0.239102 -0.390372 -0.239531
Si94 Si 0.262485 -0.382190 -0.236164
Si95 Si 0.248142 -0.399072 0.263016
Si96 Si -0.234921 -0.395250 0.212912
Si97 Si 0.104131 0.118938 0.511953
Si98 Si -0.126549 0.104246 0.497859
Si99 Si -0.104805 -0.111403 0.472113
Si100 Si 0.129733 -0.100265 0.488319
Si101 Si 0.466536 0.106074 0.110162
Si102 Si 0.520540 -0.121026 0.106696
Si103 Si 0.542332 -0.102869 -0.108665
Si104 Si 0.491398 0.126403 -0.105986
Si105 Si -0.107319 0.467250 0.107881
Si106 Si 0.109091 0.509984 0.124390
Si107 Si 0.109686 0.538338 -0.102517
Si108 Si -0.104644 0.492832 -0.120958
