# CIF file generated from NPT3.in
data_generated_cif
_audit_creation_method 'Generated by cp2k_to_cif'
_cell_length_a 14.091245
_cell_length_b 14.091245
_cell_length_c 14.091245
_cell_angle_alpha 90.000000
_cell_angle_beta 90.000000
_cell_angle_gamma 90.000000
loop_
_symmetry_equiv_pos_as_xyz
'x, y, z'
loop_
_atom_site_label
_atom_site_type_symbol
_atom_site_fract_x
_atom_site_fract_y
_atom_site_fract_z
O1 O 0.276668 0.276668 0.500000
O2 O -0.276668 0.276668 0.500000
O3 O -0.276668 -0.276668 0.500000
O4 O 0.276668 -0.276668 0.500000
O5 O 0.500000 0.276668 0.276668
O6 O 0.500000 -0.276668 0.276668
O7 O 0.500000 -0.276668 -0.276668
O8 O 0.500000 0.276668 -0.276668
O9 O -0.276668 0.500000 0.276668
O10 O 0.276668 0.500000 0.276668
O11 O 0.276668 0.500000 -0.276668
O12 O -0.276668 0.500000 -0.276668
O13 O 0.334345 0.202772 0.334345
O14 O -0.202772 0.334345 0.334345
O15 O -0.334345 -0.202772 0.334345
O16 O 0.202772 -0.334345 0.334345
O17 O 0.334345 -0.202772 -0.334345
O18 O -0.202773 -0.334345 -0.334345
O19 O -0.334345 0.202772 -0.334345
O20 O 0.202772 0.334345 -0.334345
O21 O 0.334345 0.334345 0.202772
O22 O 0.334345 -0.202773 0.334345
O23 O 0.334345 -0.334345 -0.202772
O24 O 0.334345 0.202773 -0.334345
O25 O -0.334345 0.334345 -0.202772
O26 O -0.334345 -0.202772 -0.334345
O27 O -0.334345 -0.334345 0.202773
O28 O -0.334345 0.202772 0.334345
O29 O -0.334345 0.334345 0.202773
O30 O 0.202773 0.334345 0.334345
O31 O 0.334345 0.334345 -0.202772
O32 O -0.202772 0.334345 -0.334345
O33 O -0.334345 -0.334345 -0.202772
O34 O 0.202772 -0.334345 -0.334345
O35 O 0.334345 -0.334345 0.202772
O36 O -0.202772 -0.334345 0.334345
O37 O 0.162197 0.162197 0.406785
O38 O -0.162197 0.162197 0.406785
O39 O -0.162197 -0.162197 0.406785
O40 O 0.162197 -0.162197 0.406785
O41 O 0.162197 -0.162197 -0.406785
O42 O -0.162197 -0.162197 -0.406785
O43 O -0.162197 0.162197 -0.406785
O44 O 0.162197 0.162197 -0.406785
O45 O 0.406785 0.162197 0.162197
O46 O 0.406785 -0.162197 0.162197
O47 O 0.406785 -0.162197 -0.162197
O48 O 0.406785 0.162197 -0.162197
O49 O -0.406785 0.162197 -0.162197
O50 O -0.406785 -0.162197 -0.162197
O51 O -0.406785 -0.162197 0.162197
O52 O -0.406785 0.162197 0.162197
O53 O -0.162197 0.406785 0.162197
O54 O 0.162197 0.406785 0.162197
O55 O 0.162197 0.406785 -0.162197
O56 O -0.162197 0.406785 -0.162197
O57 O -0.162197 -0.406785 -0.162197
O58 O 0.162197 -0.406785 -0.162197
O59 O 0.162197 -0.406785 0.162197
O60 O -0.162197 -0.406785 0.162197
O61 O 0.133032 -0.000000 0.500000
O62 O 0.000000 0.133032 0.500000
O63 O -0.133032 -0.000000 0.500000
O64 O 0.000000 -0.133032 0.500000
O65 O 0.500000 0.133032 0.000000
O66 O 0.500000 -0.000000 0.133032
O67 O 0.500000 -0.133032 0.000000
O68 O 0.500000 0.000000 -0.133032
O69 O -0.133032 0.500000 -0.000000
O70 O -0.000000 0.500000 0.133032
O71 O 0.133032 0.500000 -0.000000
O72 O -0.000000 0.500000 -0.133032
Si73 Si 0.243681 0.243681 0.393846
Si74 Si -0.243681 0.243681 0.393846
Si75 Si -0.243681 -0.243680 0.393846
Si76 Si 0.243680 -0.243681 0.393846
Si77 Si 0.243681 -0.243681 -0.393846
Si78 Si -0.243681 -0.243680 -0.393846
Si79 Si -0.243681 0.243681 -0.393846
Si80 Si 0.243680 0.243681 -0.393846
Si81 Si 0.393846 0.243681 0.243681
Si82 Si 0.393846 -0.243681 0.243681
Si83 Si 0.393846 -0.243681 -0.243681
Si84 Si 0.393846 0.243681 -0.243681
Si85 Si -0.393846 0.243681 -0.243680
Si86 Si -0.393846 -0.243680 -0.243681
Si87 Si -0.393846 -0.243681 0.243681
Si88 Si -0.393846 0.243681 0.243681
Si89 Si -0.243681 0.393846 0.243681
Si90 Si 0.243681 0.393846 0.243681
Si91 Si 0.243680 0.393846 -0.243681
Si92 Si -0.243681 0.393846 -0.243680
Si93 Si -0.243681 -0.393846 -0.243681
Si94 Si 0.243681 -0.393846 -0.243681
Si95 Si 0.243681 -0.393846 0.243681
Si96 Si -0.243681 -0.393846 0.243681
Si97 Si 0.113257 0.113257 0.500000
Si98 Si -0.113257 0.113257 0.500000
Si99 Si -0.113257 -0.113257 0.500000
Si100 Si 0.113257 -0.113257 0.500000
Si101 Si 0.500000 0.113257 0.113257
Si102 Si 0.500000 -0.113258 0.113257
Si103 Si 0.500000 -0.113257 -0.113257
Si104 Si 0.500000 0.113257 -0.113257
Si105 Si -0.113257 0.500000 0.113257
Si106 Si 0.113257 0.500000 0.113257
Si107 Si 0.113257 0.500000 -0.113257
Si108 Si -0.113257 0.500000 -0.113257
