# CIF file generated from PUN0.in
data_generated_cif
_audit_creation_method 'Generated by cp2k_to_cif'
_cell_length_a 14.689000
_cell_length_b 8.645000
_cell_length_c 18.941000
_cell_angle_alpha 90.000000
_cell_angle_beta 90.000000
_cell_angle_gamma 90.000000
loop_
_symmetry_equiv_pos_as_xyz
'x, y, z'
loop_
_atom_site_label
_atom_site_type_symbol
_atom_site_fract_x
_atom_site_fract_y
_atom_site_fract_z
O1 O 0.560642 0.728063 0.589799
O2 O -0.060642 -0.228063 1.089799
O3 O 1.060642 -0.228064 -0.589799
O4 O -0.560643 0.728064 -0.089799
O5 O -0.560643 -0.728065 -0.589799
O6 O 1.060642 1.228064 -0.089799
O7 O -0.060642 1.228063 0.589799
O8 O 0.560642 -0.728064 1.089799
O9 O 0.398250 0.607612 0.557543
O10 O 0.101750 -0.107611 1.057543
O11 O 0.898249 -0.107616 -0.557543
O12 O -0.398249 0.607615 -0.057543
O13 O -0.398249 -0.607617 -0.557543
O14 O 0.898249 1.107614 -0.057543
O15 O 0.101750 1.107612 0.557543
O16 O 0.398250 -0.607613 1.057543
O17 O 0.286183 0.509123 0.459834
O18 O 0.213817 -0.009124 0.959835
O19 O 0.786184 -0.009125 -0.459835
O20 O -0.286183 0.509124 0.040166
O21 O -0.286183 -0.509125 -0.459834
O22 O 0.786183 1.009125 0.040166
O23 O 0.213817 1.009124 0.459835
O24 O 0.286183 -0.509124 0.959834
O25 O 0.275093 0.303620 0.353964
O26 O 0.224907 0.196381 0.853964
O27 O 0.775093 0.196380 -0.353964
O28 O -0.275093 0.303620 0.146036
O29 O -0.275093 -0.303620 -0.353964
O30 O 0.775094 0.803620 0.146036
O31 O 0.224907 0.803619 0.353964
O32 O 0.275093 -0.303620 0.853964
O33 O 0.584883 0.779491 0.725917
O34 O -0.084883 -0.279491 1.225917
O35 O 1.084884 -0.279491 -0.725917
O36 O -0.584884 0.779491 -0.225917
O37 O -0.584884 -0.779491 -0.725917
O38 O 1.084884 1.279491 -0.225917
O39 O -0.084883 1.279491 0.725917
O40 O 0.584884 -0.779491 1.225917
O41 O 0.468565 0.563826 0.683843
O42 O 0.031435 -0.063825 1.183843
O43 O 0.968565 -0.063826 -0.683843
O44 O -0.468565 0.563826 -0.183843
O45 O -0.468565 -0.563826 -0.683843
O46 O 0.968564 1.063826 -0.183843
O47 O 0.031435 1.063825 0.683843
O48 O 0.468565 -0.563826 1.183843
O49 O 0.458145 0.577766 0.426108
O50 O 0.041855 -0.077767 0.926108
O51 O 0.958144 -0.077768 -0.426108
O52 O -0.458144 0.577768 0.073892
O53 O -0.458144 -0.577769 -0.426108
O54 O 0.958144 1.077769 0.073892
O55 O 0.041855 1.077767 0.426108
O56 O 0.458145 -0.577767 0.926108
O57 O 0.652645 0.977488 0.634887
O58 O -0.152645 -0.477488 1.134887
O59 O 1.152645 -0.477489 -0.634886
O60 O -0.652645 0.977489 -0.134887
O61 O -0.652645 -0.977489 -0.634887
O62 O 1.152645 1.477489 -0.134886
O63 O -0.152645 1.477488 0.634887
O64 O 0.652645 -0.977488 1.134887
O65 O 0.156481 0.301666 0.460131
O66 O 0.343519 0.198334 0.960131
O67 O 0.656482 0.198331 -0.460131
O68 O -0.156482 0.301669 0.039869
O69 O -0.156482 -0.301669 -0.460131
O70 O 0.656482 0.801668 0.039869
O71 O 0.343519 0.801666 0.460131
O72 O 0.156481 -0.301667 0.960131
Si73 Si 0.631492 0.797200 0.648603
Si74 Si -0.131492 -0.297200 1.148603
Si75 Si 1.131493 -0.297201 -0.648604
Si76 Si -0.631492 0.797201 -0.148603
Si77 Si -0.631492 -0.797201 -0.648603
Si78 Si 1.131492 1.297200 -0.148603
Si79 Si -0.131492 1.297200 0.648604
Si80 Si 0.631492 -0.797200 1.148603
Si81 Si 0.492014 0.580165 0.600332
Si82 Si 0.007986 -0.080165 1.100332
Si83 Si 0.992014 -0.080168 -0.600333
Si84 Si -0.492014 0.580168 -0.100332
Si85 Si -0.492014 -0.580168 -0.600332
Si86 Si 0.992014 1.080167 -0.100333
Si87 Si 0.007986 1.080166 0.600332
Si88 Si 0.492014 -0.580166 1.100332
Si89 Si 0.218780 0.409452 0.409871
Si90 Si 0.281221 0.090548 0.909871
Si91 Si 0.718780 0.090547 -0.409870
Si92 Si -0.218780 0.409453 0.090129
Si93 Si -0.218781 -0.409454 -0.409870
Si94 Si 0.718780 0.909453 0.090130
Si95 Si 0.281221 0.909451 0.409871
Si96 Si 0.218780 -0.409452 0.909871
Si97 Si 0.370983 0.623643 0.474950
Si98 Si 0.129018 -0.123643 0.974950
Si99 Si 0.870982 -0.123646 -0.474951
Si100 Si -0.370983 0.623646 0.025049
Si101 Si -0.370982 -0.623647 -0.474951
Si102 Si 0.870982 1.123645 0.025049
Si103 Si 0.129018 1.123643 0.474950
Si104 Si 0.370983 -0.623644 0.974950
Si105 Si 0.000000 0.829026 0.250000
Si106 Si 0.500000 -0.329026 0.750000
Si107 Si 0.000000 -0.829026 -0.250000
Si108 Si 0.500000 1.329026 0.250000
