# CIF file generated from PUN1.in
data_generated_cif
_audit_creation_method 'Generated by cp2k_to_cif'
_cell_length_a 14.468665
_cell_length_b 8.515325
_cell_length_c 18.656885
_cell_angle_alpha 90.000000
_cell_angle_beta 90.000000
_cell_angle_gamma 90.000000
loop_
_symmetry_equiv_pos_as_xyz
'x, y, z'
loop_
_atom_site_label
_atom_site_type_symbol
_atom_site_fract_x
_atom_site_fract_y
_atom_site_fract_z
O1 O 0.560719 0.721222 0.589724
O2 O -0.060719 -0.221222 1.089724
O3 O 1.060720 -0.221223 -0.589724
O4 O -0.560720 0.721223 -0.089724
O5 O -0.560719 -0.721222 -0.589724
O6 O 1.060720 1.221222 -0.089724
O7 O -0.060720 1.221222 0.589725
O8 O 0.560720 -0.721222 1.089725
O9 O 0.392919 0.603586 0.561714
O10 O 0.107080 -0.103585 1.061714
O11 O 0.892920 -0.103585 -0.561714
O12 O -0.392920 0.603586 -0.061714
O13 O -0.392920 -0.603586 -0.561714
O14 O 0.892921 1.103586 -0.061714
O15 O 0.107078 1.103586 0.561714
O16 O 0.392921 -0.603586 1.061714
O17 O 0.283125 0.522060 0.456706
O18 O 0.216877 -0.022057 0.956705
O19 O 0.783122 -0.022056 -0.456705
O20 O -0.283124 0.522059 0.043294
O21 O -0.283126 -0.522062 -0.456707
O22 O 0.783123 1.022057 0.043295
O23 O 0.216878 1.022056 0.456705
O24 O 0.283125 -0.522061 0.956707
O25 O 0.269306 0.296843 0.356421
O26 O 0.230696 0.203155 0.856422
O27 O 0.769304 0.203154 -0.356422
O28 O -0.269306 0.296843 0.143579
O29 O -0.269307 -0.296844 -0.356422
O30 O 0.769306 0.796846 0.143578
O31 O 0.230694 0.796845 0.356422
O32 O 0.269307 -0.296844 0.856422
O33 O 0.587484 0.766632 0.728102
O34 O -0.087484 -0.266632 1.228102
O35 O 1.087484 -0.266632 -0.728101
O36 O -0.587484 0.766632 -0.228102
O37 O -0.587484 -0.766633 -0.728102
O38 O 1.087484 1.266633 -0.228102
O39 O -0.087485 1.266633 0.728102
O40 O 0.587485 -0.766633 1.228102
O41 O 0.471462 0.544979 0.683937
O42 O 0.028539 -0.044979 1.183938
O43 O 0.971461 -0.044980 -0.683939
O44 O -0.471461 0.544980 -0.183938
O45 O -0.471462 -0.544979 -0.683937
O46 O 0.971462 1.044980 -0.183938
O47 O 0.028538 1.044980 0.683938
O48 O 0.471462 -0.544980 1.183938
O49 O 0.461384 0.586044 0.431653
O50 O 0.038616 -0.086045 0.931653
O51 O 0.961384 -0.086044 -0.431653
O52 O -0.461384 0.586044 0.068348
O53 O -0.461384 -0.586046 -0.431653
O54 O 0.961385 1.086045 0.068347
O55 O 0.038615 1.086045 0.431652
O56 O 0.461384 -0.586046 0.931653
O57 O 0.645961 0.978719 0.637512
O58 O -0.145961 -0.478718 1.137512
O59 O 1.145961 -0.478719 -0.637512
O60 O -0.645961 0.978719 -0.137512
O61 O -0.645961 -0.978719 -0.637512
O62 O 1.145962 1.478720 -0.137512
O63 O -0.145962 1.478720 0.637512
O64 O 0.645962 -0.978719 1.137512
O65 O 0.153021 0.313343 0.465909
O66 O 0.346979 0.186658 0.965910
O67 O 0.653020 0.186658 -0.465910
O68 O -0.153021 0.313343 0.034090
O69 O -0.153021 -0.313343 -0.465909
O70 O 0.653021 0.813343 0.034091
O71 O 0.346979 0.813343 0.465910
O72 O 0.153021 -0.313343 0.965910
Si73 Si 0.631946 0.793147 0.649300
Si74 Si -0.131945 -0.293148 1.149300
Si75 Si 1.131945 -0.293148 -0.649300
Si76 Si -0.631946 0.793147 -0.149300
Si77 Si -0.631947 -0.793148 -0.649300
Si78 Si 1.131946 1.293148 -0.149300
Si79 Si -0.131946 1.293149 0.649300
Si80 Si 0.631948 -0.793148 1.149300
Si81 Si 0.490950 0.571414 0.599714
Si82 Si 0.009050 -0.071414 1.099712
Si83 Si 0.990951 -0.071414 -0.599712
Si84 Si -0.490950 0.571414 -0.099713
Si85 Si -0.490951 -0.571414 -0.599713
Si86 Si 0.990951 1.071414 -0.099713
Si87 Si 0.009049 1.071414 0.599712
Si88 Si 0.490952 -0.571413 1.099713
Si89 Si 0.214334 0.413732 0.410213
Si90 Si 0.285665 0.086267 0.910212
Si91 Si 0.714336 0.086266 -0.410213
Si92 Si -0.214334 0.413733 0.089787
Si93 Si -0.214334 -0.413731 -0.410212
Si94 Si 0.714337 0.913732 0.089787
Si95 Si 0.285663 0.913733 0.410213
Si96 Si 0.214335 -0.413733 0.910213
Si97 Si 0.370037 0.630296 0.477898
Si98 Si 0.129961 -0.130298 0.977898
Si99 Si 0.870039 -0.130298 -0.477897
Si100 Si -0.370038 0.630296 0.022102
Si101 Si -0.370037 -0.630295 -0.477898
Si102 Si 0.870039 1.130298 0.022101
Si103 Si 0.129961 1.130298 0.477899
Si104 Si 0.370038 -0.630296 0.977898
Si105 Si 0.000000 0.842853 0.250000
Si106 Si 0.500000 -0.342853 0.750000
Si107 Si 0.000000 -0.842853 -0.250000
Si108 Si 0.500000 1.342853 0.250000
