# CIF file generated from PUN2.in
data_generated_cif
_audit_creation_method 'Generated by cp2k_to_cif'
_cell_length_a 14.248330
_cell_length_b 8.385650
_cell_length_c 18.372770
_cell_angle_alpha 90.000000
_cell_angle_beta 90.000000
_cell_angle_gamma 90.000000
loop_
_symmetry_equiv_pos_as_xyz
'x, y, z'
loop_
_atom_site_label
_atom_site_type_symbol
_atom_site_fract_x
_atom_site_fract_y
_atom_site_fract_z
O1 O 0.561063 0.708939 0.590312
O2 O -0.061064 -0.208939 1.090312
O3 O 1.061063 -0.208939 -0.590312
O4 O -0.561063 0.708939 -0.090312
O5 O -0.561064 -0.708940 -0.590312
O6 O 1.061064 1.208941 -0.090313
O7 O -0.061064 1.208940 0.590312
O8 O 0.561063 -0.708940 1.090312
O9 O 0.386987 0.603090 0.565046
O10 O 0.113012 -0.103089 1.065046
O11 O 0.886988 -0.103089 -0.565046
O12 O -0.386988 0.603089 -0.065046
O13 O -0.386987 -0.603090 -0.565046
O14 O 0.886987 1.103090 -0.065046
O15 O 0.113013 1.103089 0.565046
O16 O 0.386987 -0.603090 1.065046
O17 O 0.286051 0.530542 0.451003
O18 O 0.213949 -0.030542 0.951003
O19 O 0.786056 -0.030548 -0.451005
O20 O -0.286056 0.530547 0.048995
O21 O -0.286051 -0.530543 -0.451003
O22 O 0.786051 1.030543 0.048997
O23 O 0.213944 1.030548 0.451005
O24 O 0.286056 -0.530548 0.951005
O25 O 0.265560 0.297031 0.354034
O26 O 0.234440 0.202969 0.854034
O27 O 0.765561 0.202971 -0.354034
O28 O -0.265561 0.297030 0.145966
O29 O -0.265560 -0.297031 -0.354034
O30 O 0.765560 0.797031 0.145966
O31 O 0.234439 0.797030 0.354034
O32 O 0.265561 -0.297029 0.854034
O33 O 0.587975 0.753009 0.730879
O34 O -0.087975 -0.253009 1.230880
O35 O 1.087975 -0.253010 -0.730879
O36 O -0.587975 0.753010 -0.230879
O37 O -0.587975 -0.753009 -0.730879
O38 O 1.087975 1.253010 -0.230879
O39 O -0.087975 1.253010 0.730879
O40 O 0.587975 -0.753010 1.230879
O41 O 0.472180 0.521078 0.683897
O42 O 0.027820 -0.021078 1.183897
O43 O 0.972180 -0.021077 -0.683895
O44 O -0.472180 0.521077 -0.183895
O45 O -0.472180 -0.521078 -0.683897
O46 O 0.972179 1.021077 -0.183897
O47 O 0.027820 1.021077 0.683895
O48 O 0.472180 -0.521077 1.183895
O49 O 0.468427 0.599911 0.437663
O50 O 0.031573 -0.099910 0.937663
O51 O 0.968428 -0.099912 -0.437662
O52 O -0.468428 0.599911 0.062338
O53 O -0.468427 -0.599913 -0.437662
O54 O 0.968427 1.099914 0.062338
O55 O 0.031572 1.099914 0.437662
O56 O 0.468428 -0.599914 0.937662
O57 O 0.641791 0.975078 0.640346
O58 O -0.141792 -0.475078 1.140346
O59 O 1.141791 -0.475078 -0.640346
O60 O -0.641791 0.975079 -0.140346
O61 O -0.641792 -0.975078 -0.640346
O62 O 1.141792 1.475078 -0.140346
O63 O -0.141792 1.475079 0.640346
O64 O 0.641792 -0.975079 1.140346
O65 O 0.153060 0.324993 0.469115
O66 O 0.346940 0.175007 0.969115
O67 O 0.653061 0.175005 -0.469115
O68 O -0.153061 0.324995 0.030885
O69 O -0.153060 -0.324992 -0.469116
O70 O 0.653060 0.824992 0.030885
O71 O 0.346939 0.824994 0.469115
O72 O 0.153061 -0.324994 0.969115
Si73 Si 0.631686 0.785604 0.651178
Si74 Si -0.131686 -0.285604 1.151178
Si75 Si 1.131687 -0.285602 -0.651178
Si76 Si -0.631687 0.785602 -0.151178
Si77 Si -0.631686 -0.785605 -0.651178
Si78 Si 1.131686 1.285605 -0.151178
Si79 Si -0.131688 1.285603 0.651178
Si80 Si 0.631687 -0.785603 1.151179
Si81 Si 0.488076 0.559057 0.598989
Si82 Si 0.011924 -0.059058 1.098989
Si83 Si 0.988075 -0.059057 -0.598990
Si84 Si -0.488076 0.559058 -0.098990
Si85 Si -0.488076 -0.559059 -0.598989
Si86 Si 0.988076 1.059059 -0.098989
Si87 Si 0.011925 1.059059 0.598990
Si88 Si 0.488076 -0.559059 1.098990
Si89 Si 0.212710 0.419578 0.408348
Si90 Si 0.287290 0.080422 0.908348
Si91 Si 0.712706 0.080426 -0.408347
Si92 Si -0.212706 0.419574 0.091653
Si93 Si -0.212709 -0.419578 -0.408348
Si94 Si 0.712710 0.919578 0.091652
Si95 Si 0.287294 0.919574 0.408348
Si96 Si 0.212706 -0.419574 0.908348
Si97 Si 0.370754 0.639132 0.479675
Si98 Si 0.129246 -0.139132 0.979676
Si99 Si 0.870751 -0.139130 -0.479674
Si100 Si -0.370751 0.639130 0.020326
Si101 Si -0.370754 -0.639133 -0.479675
Si102 Si 0.870754 1.139133 0.020325
Si103 Si 0.129249 1.139131 0.479674
Si104 Si 0.370751 -0.639130 0.979674
Si105 Si -0.000000 0.862212 0.249999
Si106 Si 0.500000 -0.362212 0.749999
Si107 Si 0.000000 -0.862212 -0.249999
Si108 Si 0.500000 1.362212 0.250001
