# CIF file generated from PUN3.in
data_generated_cif
_audit_creation_method 'Generated by cp2k_to_cif'
_cell_length_a 14.909335
_cell_length_b 8.774675
_cell_length_c 19.225115
_cell_angle_alpha 90.000000
_cell_angle_beta 90.000000
_cell_angle_gamma 90.000000
loop_
_symmetry_equiv_pos_as_xyz
'x, y, z'
loop_
_atom_site_label
_atom_site_type_symbol
_atom_site_fract_x
_atom_site_fract_y
_atom_site_fract_z
O1 O 0.561267 0.729042 0.589831
O2 O -0.061267 -0.229042 1.089831
O3 O 1.061267 -0.229042 -0.589831
O4 O -0.561267 0.729042 -0.089831
O5 O -0.561267 -0.729042 -0.589831
O6 O 1.061267 1.229042 -0.089831
O7 O -0.061267 1.229042 0.589831
O8 O 0.561267 -0.729042 1.089831
O9 O 0.403473 0.607000 0.554246
O10 O 0.096527 -0.107000 1.054246
O11 O 0.903473 -0.107000 -0.554246
O12 O -0.403473 0.607000 -0.054246
O13 O -0.403473 -0.607001 -0.554246
O14 O 0.903473 1.107000 -0.054246
O15 O 0.096527 1.107000 0.554246
O16 O 0.403473 -0.607000 1.054246
O17 O 0.286357 0.508399 0.460396
O18 O 0.213643 -0.008399 0.960396
O19 O 0.786357 -0.008399 -0.460396
O20 O -0.286357 0.508399 0.039604
O21 O -0.286357 -0.508399 -0.460396
O22 O 0.786357 1.008399 0.039604
O23 O 0.213642 1.008399 0.460396
O24 O 0.286357 -0.508399 0.960396
O25 O 0.276525 0.309169 0.354212
O26 O 0.223475 0.190831 0.854212
O27 O 0.776525 0.190831 -0.354212
O28 O -0.276525 0.309169 0.145788
O29 O -0.276526 -0.309169 -0.354212
O30 O 0.776525 0.809169 0.145788
O31 O 0.223474 0.809169 0.354212
O32 O 0.276525 -0.309169 0.854212
O33 O 0.584164 0.779729 0.723762
O34 O -0.084164 -0.279729 1.223762
O35 O 1.084164 -0.279729 -0.723762
O36 O -0.584164 0.779729 -0.223762
O37 O -0.584164 -0.779729 -0.723762
O38 O 1.084164 1.279729 -0.223762
O39 O -0.084165 1.279729 0.723762
O40 O 0.584164 -0.779729 1.223762
O41 O 0.469791 0.570466 0.683263
O42 O 0.030209 -0.070466 1.183263
O43 O 0.969790 -0.070466 -0.683263
O44 O -0.469791 0.570466 -0.183263
O45 O -0.469791 -0.570466 -0.683263
O46 O 0.969791 1.070466 -0.183263
O47 O 0.030209 1.070466 0.683263
O48 O 0.469791 -0.570466 1.183263
O49 O 0.454511 0.572411 0.423196
O50 O 0.045489 -0.072411 0.923196
O51 O 0.954511 -0.072411 -0.423196
O52 O -0.454512 0.572411 0.076805
O53 O -0.454512 -0.572411 -0.423196
O54 O 0.954512 1.072411 0.076804
O55 O 0.045488 1.072411 0.423195
O56 O 0.454512 -0.572411 0.923196
O57 O 0.655956 0.971644 0.632226
O58 O -0.155956 -0.471645 1.132226
O59 O 1.155956 -0.471645 -0.632226
O60 O -0.655956 0.971645 -0.132226
O61 O -0.655956 -0.971645 -0.632226
O62 O 1.155956 1.471645 -0.132226
O63 O -0.155956 1.471645 0.632226
O64 O 0.655956 -0.971644 1.132226
O65 O 0.157356 0.297306 0.457169
O66 O 0.342644 0.202695 0.957169
O67 O 0.657356 0.202694 -0.457169
O68 O -0.157356 0.297306 0.042831
O69 O -0.157356 -0.297306 -0.457169
O70 O 0.657356 0.797305 0.042831
O71 O 0.342644 0.797306 0.457169
O72 O 0.157356 -0.297306 0.957169
Si73 Si 0.632354 0.794780 0.647682
Si74 Si -0.132355 -0.294780 1.147682
Si75 Si 1.132355 -0.294780 -0.647682
Si76 Si -0.632355 0.794780 -0.147682
Si77 Si -0.632355 -0.794780 -0.647682
Si78 Si 1.132355 1.294780 -0.147682
Si79 Si -0.132355 1.294780 0.647682
Si80 Si 0.632355 -0.794780 1.147682
Si81 Si 0.493763 0.583161 0.600335
Si82 Si 0.006237 -0.083161 1.100335
Si83 Si 0.993763 -0.083161 -0.600335
Si84 Si -0.493763 0.583161 -0.100335
Si85 Si -0.493764 -0.583161 -0.600335
Si86 Si 0.993764 1.083161 -0.100335
Si87 Si 0.006236 1.083161 0.600335
Si88 Si 0.493764 -0.583161 1.100335
Si89 Si 0.219734 0.410403 0.410368
Si90 Si 0.280266 0.089597 0.910368
Si91 Si 0.719734 0.089597 -0.410368
Si92 Si -0.219734 0.410403 0.089632
Si93 Si -0.219734 -0.410403 -0.410368
Si94 Si 0.719734 0.910403 0.089632
Si95 Si 0.280266 0.910403 0.410368
Si96 Si 0.219734 -0.410403 0.910368
Si97 Si 0.371136 0.621630 0.473376
Si98 Si 0.128864 -0.121630 0.973376
Si99 Si 0.871136 -0.121630 -0.473376
Si100 Si -0.371136 0.621630 0.026624
Si101 Si -0.371137 -0.621630 -0.473376
Si102 Si 0.871137 1.121630 0.026624
Si103 Si 0.128863 1.121630 0.473376
Si104 Si 0.371137 -0.621630 0.973376
Si105 Si -0.000000 0.825333 0.250000
Si106 Si 0.500000 -0.325333 0.750000
Si107 Si -0.000000 -0.825333 -0.250000
Si108 Si 0.500000 1.325333 0.250000
