# CIF file generated from RHO0.in
data_generated_cif
_audit_creation_method 'Generated by cp2k_to_cif'
_cell_length_a 14.919000
_cell_length_b 14.919000
_cell_length_c 14.919000
_cell_angle_alpha 90.000000
_cell_angle_beta 90.000000
_cell_angle_gamma 90.000000
loop_
_symmetry_equiv_pos_as_xyz
'x, y, z'
loop_
_atom_site_label
_atom_site_type_symbol
_atom_site_fract_x
_atom_site_fract_y
_atom_site_fract_z
O1 O 0.335773 0.131873 0.336648
O2 O 0.665410 0.869612 0.664863
O3 O 0.663565 0.869949 0.334686
O4 O 0.335014 0.133269 0.665030
O5 O 0.662812 0.130461 0.665371
O6 O 0.334686 0.868813 0.335913
O7 O 0.335569 0.867867 0.663998
O8 O 0.663793 0.130964 0.333935
O9 O 0.335766 0.334845 0.129722
O10 O 0.665383 0.664625 0.868614
O11 O 0.336127 0.664527 0.869651
O12 O 0.665138 0.335847 0.132221
O13 O 0.665524 0.664143 0.130994
O14 O 0.335676 0.335506 0.867841
O15 O 0.664742 0.336023 0.868988
O16 O 0.335352 0.664720 0.130882
O17 O 0.131905 0.335819 0.335440
O18 O 0.869077 0.664391 0.664138
O19 O 0.870470 0.335941 0.663763
O20 O 0.130851 0.664342 0.335669
O21 O 0.131154 0.664408 0.664472
O22 O 0.866838 0.334010 0.335061
O23 O 0.869101 0.665003 0.335747
O24 O 0.131245 0.333589 0.664683
O25 O 0.835835 0.631236 0.835129
O26 O 0.164864 0.369493 0.163512
O27 O 0.164403 0.368432 0.835225
O28 O 0.836648 0.631000 0.165687
O29 O 0.164504 0.630832 0.164264
O30 O 0.835840 0.369162 0.835374
O31 O 0.835819 0.368787 0.165234
O32 O 0.165196 0.631390 0.835836
O33 O 0.836183 0.835928 0.631574
O34 O 0.164876 0.165087 0.367602
O35 O 0.834644 0.163624 0.370430
O36 O 0.164325 0.835394 0.631375
O37 O 0.164361 0.163785 0.630257
O38 O 0.834522 0.836011 0.369061
O39 O 0.163904 0.835163 0.368544
O40 O 0.833148 0.165574 0.633059
O41 O 0.629794 0.835586 0.834859
O42 O 0.369237 0.164436 0.165201
O43 O 0.368996 0.835270 0.164649
O44 O 0.630058 0.164667 0.835724
O45 O 0.631620 0.165047 0.163846
O46 O 0.369067 0.835210 0.835337
O47 O 0.368905 0.164639 0.836170
O48 O 0.630933 0.834873 0.164206
O49 O 0.278121 0.119758 0.500462
O50 O 0.722999 0.879933 0.500618
O51 O 0.721352 0.119557 0.500606
O52 O 0.275835 0.879146 0.499581
O53 O 0.499848 0.276416 0.121432
O54 O 0.500540 0.721508 0.880383
O55 O 0.500239 0.721835 0.120378
O56 O 0.500155 0.279128 0.880673
O57 O 0.120529 0.499550 0.277484
O58 O 0.880741 0.500464 0.722104
O59 O 0.121325 0.499991 0.722447
O60 O 0.880309 0.499585 0.278719
O61 O 0.120143 0.276655 0.500567
O62 O 0.879149 0.722402 0.499698
O63 O 0.119331 0.721863 0.499725
O64 O 0.879246 0.278333 0.499970
O65 O 0.277620 0.500051 0.878931
O66 O 0.722796 0.500190 0.120335
O67 O 0.723121 0.500289 0.879316
O68 O 0.278592 0.499569 0.119519
O69 O 0.499322 0.120685 0.722884
O70 O 0.499615 0.879403 0.277859
O71 O 0.500414 0.120215 0.278291
O72 O 0.499889 0.880239 0.720774
O73 O 0.778578 0.619786 -0.000005
O74 O 0.222215 0.379811 -0.000811
O75 O 0.221940 0.619737 0.000308
O76 O 0.777612 0.379881 0.000264
O77 O 0.000034 0.777949 0.620239
O78 O 0.000026 0.225338 0.378446
O79 O -0.001152 0.219105 0.618893
O80 O -0.000512 0.778644 0.380101
O81 O 0.618749 -0.000464 0.778717
O82 O 0.379647 -0.000371 0.222619
O83 O 0.619040 -0.000028 0.221194
O84 O 0.378282 -0.000238 0.776749
O85 O 0.620352 0.777593 -0.000384
O86 O 0.380353 0.221513 0.000155
O87 O 0.621068 0.223570 0.000211
O88 O 0.380103 0.777929 0.000415
O89 O 0.777530 0.000115 0.379962
O90 O 0.224625 -0.000039 0.621583
O91 O 0.221949 0.000484 0.379371
O92 O 0.777689 0.001104 0.621411
O93 O 0.000399 0.620183 0.222854
O94 O 0.000882 0.380037 0.777976
O95 O 0.000742 0.620724 0.777360
O96 O -0.000223 0.379889 0.222093
Si97 Si 0.249799 0.103997 0.396760
Si98 Si 0.750745 0.896806 0.604146
Si99 Si 0.748890 0.896246 0.396120
Si100 Si 0.250217 0.103969 0.604125
Si101 Si 0.748663 0.104222 0.604286
Si102 Si 0.248724 0.896525 0.396011
Si103 Si 0.249628 0.895689 0.603405
Si104 Si 0.748955 0.103176 0.396589
Si105 Si 0.396475 0.249109 0.103797
Si106 Si 0.604167 0.749712 0.895817
Si107 Si 0.396821 0.749896 0.896564
Si108 Si 0.604299 0.251387 0.103739
Si109 Si 0.604064 0.749121 0.103319
Si110 Si 0.396327 0.250602 0.896543
Si111 Si 0.603506 0.250660 0.896316
Si112 Si 0.396389 0.749916 0.103996
Si113 Si 0.103765 0.396193 0.249169
Si114 Si 0.897021 0.604123 0.749789
Si115 Si 0.897095 0.397043 0.750434
Si116 Si 0.104073 0.603349 0.250169
Si117 Si 0.104633 0.603829 0.750279
Si118 Si 0.896297 0.395468 0.251196
Si119 Si 0.896901 0.603386 0.251315
Si120 Si 0.104425 0.395804 0.749062
Si121 Si 0.102827 0.248176 0.603653
Si122 Si 0.895667 0.751079 0.396252
Si123 Si 0.896397 0.750072 0.603517
Si124 Si 0.104206 0.250960 0.395866
Si125 Si 0.103022 0.749916 0.396344
Si126 Si 0.896078 0.250424 0.603712
Si127 Si 0.895288 0.249120 0.396440
Si128 Si 0.103601 0.749608 0.603737
Si129 Si 0.249975 0.396420 0.895219
Si130 Si 0.751281 0.603474 0.103713
Si131 Si 0.750909 0.396613 0.104341
Si132 Si 0.250298 0.603743 0.896590
Si133 Si 0.750800 0.603828 0.896204
Si134 Si 0.250496 0.395818 0.102679
Si135 Si 0.250365 0.603506 0.103736
Si136 Si 0.750483 0.396484 0.896502
Si137 Si 0.395472 0.103993 0.750525
Si138 Si 0.603083 0.896140 0.249367
Si139 Si 0.395655 0.895667 0.250410
Si140 Si 0.602722 0.103258 0.751030
Si141 Si 0.603372 0.103671 0.248805
Si142 Si 0.395890 0.896028 0.749474
Si143 Si 0.603273 0.896148 0.749336
Si144 Si 0.396466 0.103329 0.250354
