# CIF file generated from RHO1.in
data_generated_cif
_audit_creation_method 'Generated by cp2k_to_cif'
_cell_length_a 14.695215
_cell_length_b 14.695215
_cell_length_c 14.695215
_cell_angle_alpha 90.000000
_cell_angle_beta 90.000000
_cell_angle_gamma 90.000000
loop_
_symmetry_equiv_pos_as_xyz
'x, y, z'
loop_
_atom_site_label
_atom_site_type_symbol
_atom_site_fract_x
_atom_site_fract_y
_atom_site_fract_z
O1 O 0.260477 0.260478 0.465279
O2 O -0.260477 0.260477 0.465279
O3 O -0.260477 -0.260477 0.465279
O4 O 0.260477 -0.260477 0.465279
O5 O 0.465279 0.260477 0.260477
O6 O 0.465279 -0.260477 0.260478
O7 O 0.465279 -0.260477 -0.260477
O8 O 0.465279 0.260478 -0.260477
O9 O -0.260477 0.465279 0.260478
O10 O 0.260477 0.465279 0.260477
O11 O 0.260477 0.465279 -0.260477
O12 O -0.260478 0.465279 -0.260477
O13 O 0.311254 0.183386 0.311254
O14 O -0.183386 0.311254 0.311254
O15 O -0.311254 -0.183386 0.311254
O16 O 0.183386 -0.311253 0.311254
O17 O 0.311254 -0.183386 -0.311254
O18 O -0.183387 -0.311254 -0.311254
O19 O -0.311254 0.183387 -0.311254
O20 O 0.183386 0.311254 -0.311254
O21 O 0.311254 0.311254 0.183386
O22 O 0.311254 -0.183386 0.311254
O23 O 0.311254 -0.311254 -0.183386
O24 O 0.311254 0.183387 -0.311254
O25 O -0.311253 0.311254 -0.183385
O26 O -0.311254 -0.183386 -0.311254
O27 O -0.311254 -0.311254 0.183387
O28 O -0.311254 0.183386 0.311254
O29 O -0.311254 0.311254 0.183386
O30 O 0.183387 0.311254 0.311254
O31 O 0.311253 0.311254 -0.183385
O32 O -0.183386 0.311254 -0.311254
O33 O -0.311254 -0.311254 -0.183386
O34 O 0.183386 -0.311254 -0.311254
O35 O 0.311254 -0.311254 0.183387
O36 O -0.183385 -0.311253 0.311254
O37 O 0.149647 0.149647 0.375099
O38 O -0.149647 0.149647 0.375099
O39 O -0.149646 -0.149647 0.375099
O40 O 0.149647 -0.149646 0.375099
O41 O 0.149647 -0.149647 -0.375099
O42 O -0.149647 -0.149647 -0.375099
O43 O -0.149647 0.149647 -0.375099
O44 O 0.149647 0.149647 -0.375099
O45 O 0.375099 0.149647 0.149646
O46 O 0.375099 -0.149647 0.149647
O47 O 0.375099 -0.149647 -0.149647
O48 O 0.375099 0.149647 -0.149647
O49 O -0.375099 0.149647 -0.149647
O50 O -0.375099 -0.149647 -0.149647
O51 O -0.375099 -0.149647 0.149647
O52 O -0.375099 0.149647 0.149647
O53 O -0.149647 0.375099 0.149647
O54 O 0.149646 0.375099 0.149647
O55 O 0.149646 0.375099 -0.149646
O56 O -0.149646 0.375099 -0.149647
O57 O -0.149646 -0.375099 -0.149647
O58 O 0.149647 -0.375099 -0.149647
O59 O 0.149646 -0.375099 0.149647
O60 O -0.149647 -0.375099 0.149647
O61 O 0.127478 -0.000000 0.465279
O62 O 0.000001 0.127477 0.465279
O63 O -0.127478 -0.000000 0.465279
O64 O 0.000001 -0.127477 0.465279
O65 O 0.465279 0.127477 0.000001
O66 O 0.465279 0.000000 0.127478
O67 O 0.465279 -0.127477 0.000001
O68 O 0.465279 0.000000 -0.127477
O69 O -0.127480 0.465279 -0.000000
O70 O 0.000000 0.465279 0.127475
O71 O 0.127480 0.465279 0.000000
O72 O 0.000001 0.465279 -0.127475
Si73 Si 0.226583 0.226583 0.366145
Si74 Si -0.226583 0.226583 0.366145
Si75 Si -0.226583 -0.226583 0.366145
Si76 Si 0.226583 -0.226583 0.366145
Si77 Si 0.226583 -0.226583 -0.366145
Si78 Si -0.226584 -0.226583 -0.366145
Si79 Si -0.226583 0.226583 -0.366145
Si80 Si 0.226583 0.226584 -0.366145
Si81 Si 0.366145 0.226583 0.226583
Si82 Si 0.366145 -0.226583 0.226583
Si83 Si 0.366145 -0.226583 -0.226583
Si84 Si 0.366145 0.226583 -0.226583
Si85 Si -0.366145 0.226583 -0.226583
Si86 Si -0.366145 -0.226583 -0.226583
Si87 Si -0.366145 -0.226583 0.226583
Si88 Si -0.366145 0.226583 0.226583
Si89 Si -0.226583 0.366145 0.226583
Si90 Si 0.226583 0.366145 0.226583
Si91 Si 0.226583 0.366145 -0.226583
Si92 Si -0.226583 0.366145 -0.226583
Si93 Si -0.226583 -0.366145 -0.226583
Si94 Si 0.226583 -0.366145 -0.226583
Si95 Si 0.226583 -0.366145 0.226583
Si96 Si -0.226583 -0.366145 0.226583
Si97 Si 0.105731 0.105732 0.465279
Si98 Si -0.105731 0.105731 0.465279
Si99 Si -0.105732 -0.105731 0.465279
Si100 Si 0.105731 -0.105731 0.465279
Si101 Si 0.465279 0.105731 0.105731
Si102 Si 0.465279 -0.105732 0.105731
Si103 Si 0.465279 -0.105731 -0.105732
Si104 Si 0.465279 0.105731 -0.105732
Si105 Si -0.105732 0.465279 0.105730
Si106 Si 0.105731 0.465279 0.105731
Si107 Si 0.105731 0.465279 -0.105731
Si108 Si -0.105732 0.465279 -0.105731
