# CIF file generated from RHO2.in
data_generated_cif
_audit_creation_method 'Generated by cp2k_to_cif'
_cell_length_a 14.471430
_cell_length_b 14.471430
_cell_length_c 14.471430
_cell_angle_alpha 90.000000
_cell_angle_beta 90.000000
_cell_angle_gamma 90.000000
loop_
_symmetry_equiv_pos_as_xyz
'x, y, z'
loop_
_atom_site_label
_atom_site_type_symbol
_atom_site_fract_x
_atom_site_fract_y
_atom_site_fract_z
O1 O 0.362411 0.138480 0.362542
O2 O 0.665482 0.894688 0.664099
O3 O 0.665105 0.892043 0.366008
O4 O 0.361863 0.142455 0.669077
O5 O 0.668293 0.138121 0.664575
O6 O 0.364760 0.892177 0.365205
O7 O 0.364012 0.889599 0.665222
O8 O 0.667388 0.139322 0.363812
O9 O 0.365743 0.364536 0.140811
O10 O 0.667330 0.668643 0.891162
O11 O 0.364901 0.664485 0.895359
O12 O 0.671032 0.357800 0.141760
O13 O 0.663864 0.664307 0.135455
O14 O 0.361166 0.359426 0.886509
O15 O 0.663762 0.365014 0.891416
O16 O 0.361131 0.668267 0.136295
O17 O 0.140085 0.365377 0.366035
O18 O 0.891934 0.664511 0.665413
O19 O 0.890665 0.363225 0.664706
O20 O 0.140226 0.668226 0.361551
O21 O 0.139885 0.666966 0.666782
O22 O 0.887983 0.364273 0.359295
O23 O 0.891661 0.665872 0.364762
O24 O 0.138577 0.363964 0.669414
O25 O 0.842263 0.669937 0.840796
O26 O 0.191112 0.360729 0.191020
O27 O 0.181335 0.360372 0.846832
O28 O 0.839320 0.669449 0.188179
O29 O 0.184038 0.671636 0.183874
O30 O 0.837641 0.360742 0.838205
O31 O 0.846585 0.362875 0.183702
O32 O 0.188653 0.668880 0.841264
O33 O 0.839689 0.839616 0.669974
O34 O 0.187425 0.188129 0.362089
O35 O 0.842322 0.187611 0.361750
O36 O 0.186397 0.842562 0.669785
O37 O 0.186978 0.188726 0.670381
O38 O 0.842487 0.840917 0.359963
O39 O 0.189431 0.840673 0.360302
O40 O 0.842479 0.187767 0.669018
O41 O 0.668131 0.842849 0.839796
O42 O 0.360613 0.190171 0.190027
O43 O 0.359985 0.842427 0.187744
O44 O 0.669164 0.189683 0.838580
O45 O 0.670831 0.180882 0.185456
O46 O 0.360117 0.837956 0.838641
O47 O 0.361114 0.184538 0.842608
O48 O 0.670074 0.837412 0.191505
O49 O 0.271300 0.131365 0.516135
O50 O 0.761254 0.897960 0.513727
O51 O 0.764059 0.128285 0.515055
O52 O 0.269013 0.895953 0.515639
O53 O 0.517038 0.268800 0.133467
O54 O 0.515195 0.759287 0.896308
O55 O 0.514355 0.760496 0.130190
O56 O 0.514457 0.269056 0.896115
O57 O 0.136046 0.517086 0.271988
O58 O 0.896247 0.514703 0.759159
O59 O 0.132211 0.514374 0.761666
O60 O 0.895928 0.516307 0.267281
O61 O 0.134323 0.269788 0.516472
O62 O 0.895972 0.758269 0.515512
O63 O 0.131225 0.757933 0.514800
O64 O 0.893733 0.272235 0.514104
O65 O 0.271046 0.512810 0.895309
O66 O 0.756488 0.514607 0.131394
O67 O 0.755717 0.516960 0.896161
O68 O 0.267430 0.516065 0.134103
O69 O 0.515030 0.134369 0.757082
O70 O 0.514407 0.892764 0.270152
O71 O 0.515326 0.131796 0.271201
O72 O 0.514542 0.894619 0.757359
O73 O 0.803162 0.648230 0.014363
O74 O 0.232269 0.379334 0.016775
O75 O 0.226651 0.647618 0.013059
O76 O 0.801764 0.382423 0.012205
O77 O 0.013925 0.802383 0.649432
O78 O 0.013886 0.231778 0.381154
O79 O 0.014297 0.228808 0.646433
O80 O 0.014638 0.802974 0.382733
O81 O 0.646656 0.015823 0.801060
O82 O 0.382825 0.014686 0.227570
O83 O 0.647159 0.011568 0.228951
O84 O 0.383309 0.012988 0.802237
O85 O 0.649300 0.801822 0.014592
O86 O 0.382856 0.229004 0.016322
O87 O 0.649401 0.226498 0.013485
O88 O 0.382262 0.805870 0.013222
O89 O 0.801797 0.013955 0.378433
O90 O 0.230896 0.015102 0.650115
O91 O 0.227866 0.014317 0.381294
O92 O 0.804109 0.013318 0.649410
O93 O 0.013470 0.648312 0.229938
O94 O 0.011777 0.379879 0.802326
O95 O 0.015186 0.648444 0.800022
O96 O 0.017929 0.383595 0.229615
Si97 Si 0.261948 0.118042 0.406213
Si98 Si 0.767815 0.911050 0.623226
Si99 Si 0.768283 0.911024 0.404260
Si100 Si 0.261876 0.119435 0.625821
Si101 Si 0.769973 0.116429 0.624625
Si102 Si 0.262268 0.911113 0.405956
Si103 Si 0.261977 0.910722 0.624829
Si104 Si 0.768672 0.116947 0.405512
Si105 Si 0.407347 0.263114 0.119650
Si106 Si 0.624221 0.769190 0.910774
Si107 Si 0.406162 0.766973 0.911373
Si108 Si 0.626641 0.258183 0.118165
Si109 Si 0.623874 0.767024 0.117701
Si110 Si 0.405769 0.260212 0.911709
Si111 Si 0.624376 0.262238 0.910283
Si112 Si 0.404669 0.769400 0.116647
Si113 Si 0.121225 0.407083 0.264355
Si114 Si 0.911666 0.623806 0.767303
Si115 Si 0.909583 0.404969 0.765845
Si116 Si 0.117945 0.625566 0.261117
Si117 Si 0.118967 0.623756 0.766919
Si118 Si 0.913670 0.407285 0.259549
Si119 Si 0.909636 0.625035 0.262522
Si120 Si 0.115204 0.405463 0.770183
Si121 Si 0.117965 0.263748 0.625434
Si122 Si 0.911711 0.767332 0.406481
Si123 Si 0.910793 0.766861 0.624958
Si124 Si 0.117995 0.263265 0.406793
Si125 Si 0.118166 0.767912 0.405453
Si126 Si 0.910977 0.262383 0.622721
Si127 Si 0.909692 0.264988 0.404579
Si128 Si 0.117450 0.767936 0.624383
Si129 Si 0.261800 0.402659 0.911469
Si130 Si 0.766185 0.624006 0.117105
Si131 Si 0.768895 0.405181 0.116456
Si132 Si 0.262703 0.622301 0.910381
Si133 Si 0.767375 0.625796 0.910988
Si134 Si 0.264274 0.405617 0.120129
Si135 Si 0.260308 0.625008 0.117031
Si136 Si 0.765457 0.407107 0.909266
Si137 Si 0.406543 0.116980 0.768032
Si138 Si 0.623623 0.908513 0.263834
Si139 Si 0.405091 0.911094 0.263025
Si140 Si 0.624557 0.118995 0.765313
Si141 Si 0.624694 0.115722 0.263022
Si142 Si 0.405744 0.909344 0.766650
Si143 Si 0.623697 0.912583 0.765828
Si144 Si 0.405544 0.118499 0.261953
