# CIF file generated from RHO3.in
data_generated_cif
_audit_creation_method 'Generated by cp2k_to_cif'
_cell_length_a 15.142785
_cell_length_b 15.142785
_cell_length_c 15.142785
_cell_angle_alpha 90.000000
_cell_angle_beta 90.000000
_cell_angle_gamma 90.000000
loop_
_symmetry_equiv_pos_as_xyz
'x, y, z'
loop_
_atom_site_label
_atom_site_type_symbol
_atom_site_fract_x
_atom_site_fract_y
_atom_site_fract_z
O1 O 0.325553 0.120486 0.325384
O2 O 0.660800 0.865617 0.660807
O3 O 0.659879 0.865658 0.325947
O4 O 0.325739 0.120410 0.660461
O5 O 0.660945 0.120591 0.660787
O6 O 0.325329 0.865571 0.325240
O7 O 0.325387 0.865607 0.660809
O8 O 0.660716 0.120516 0.325261
O9 O 0.325300 0.325424 0.120476
O10 O 0.660744 0.660674 0.865638
O11 O 0.326498 0.659798 0.865724
O12 O 0.660772 0.325507 0.120519
O13 O 0.660724 0.660713 0.120553
O14 O 0.325445 0.325289 0.865604
O15 O 0.660796 0.325570 0.865194
O16 O 0.325362 0.660675 0.120502
O17 O 0.120942 0.325475 0.325244
O18 O 0.865557 0.660611 0.660483
O19 O 0.865724 0.326295 0.659612
O20 O 0.120577 0.660868 0.325293
O21 O 0.120419 0.660368 0.660451
O22 O 0.864403 0.325359 0.324900
O23 O 0.865498 0.661024 0.325194
O24 O 0.120307 0.326303 0.659444
O25 O 0.828003 0.619998 0.827689
O26 O 0.158067 0.368771 0.157999
O27 O 0.158433 0.366366 0.827372
O28 O 0.827842 0.618847 0.158192
O29 O 0.158116 0.618362 0.158089
O30 O 0.828004 0.366211 0.827497
O31 O 0.827963 0.368848 0.157929
O32 O 0.158730 0.619777 0.827532
O33 O 0.827950 0.827972 0.618677
O34 O 0.158430 0.158051 0.366045
O35 O 0.827746 0.158212 0.366885
O36 O 0.158316 0.827647 0.618942
O37 O 0.158602 0.158410 0.619977
O38 O 0.827738 0.827965 0.367385
O39 O 0.158169 0.828003 0.368517
O40 O 0.827947 0.158493 0.618136
O41 O 0.618560 0.827979 0.827986
O42 O 0.366482 0.158354 0.158227
O43 O 0.366091 0.827705 0.158028
O44 O 0.618911 0.158434 0.827726
O45 O 0.619710 0.158476 0.158196
O46 O 0.367973 0.827672 0.827844
O47 O 0.367731 0.158178 0.827847
O48 O 0.619997 0.827736 0.158208
O49 O 0.272928 0.113045 0.493021
O50 O 0.712928 0.873136 0.493095
O51 O 0.713003 0.113011 0.492941
O52 O 0.273260 0.873151 0.493178
O53 O 0.493038 0.273016 0.112992
O54 O 0.493295 0.712835 0.873091
O55 O 0.493043 0.713187 0.113045
O56 O 0.493137 0.273229 0.873099
O57 O 0.112932 0.493126 0.273333
O58 O 0.873078 0.493163 0.713137
O59 O 0.113004 0.493089 0.713189
O60 O 0.873108 0.493268 0.273324
O61 O 0.112912 0.270463 0.492505
O62 O 0.873078 0.712920 0.492994
O63 O 0.112939 0.712875 0.493119
O64 O 0.873472 0.273103 0.492475
O65 O 0.273033 0.492953 0.873043
O66 O 0.712789 0.493200 0.112895
O67 O 0.714882 0.493149 0.872772
O68 O 0.273305 0.493156 0.112957
O69 O 0.493141 0.112970 0.712910
O70 O 0.492891 0.872867 0.270758
O71 O 0.493116 0.112998 0.272986
O72 O 0.493141 0.873166 0.712875
O73 O 0.770062 0.609567 -0.006906
O74 O 0.216050 0.376671 -0.007027
O75 O 0.216165 0.609492 -0.007048
O76 O 0.769926 0.376533 -0.007041
O77 O -0.006952 0.770027 0.609420
O78 O -0.007086 0.216243 0.373858
O79 O -0.006926 0.216216 0.609603
O80 O -0.006969 0.769982 0.376622
O81 O 0.609445 -0.006873 0.769993
O82 O 0.376546 -0.006844 0.215961
O83 O 0.609636 -0.006890 0.216081
O84 O 0.376628 -0.006958 0.770046
O85 O 0.609459 0.770039 -0.006890
O86 O 0.376679 0.216068 -0.006967
O87 O 0.609518 0.216235 -0.007030
O88 O 0.376662 0.769922 -0.007052
O89 O 0.769935 -0.007006 0.376595
O90 O 0.216070 -0.006967 0.609469
O91 O 0.216102 -0.006936 0.376650
O92 O 0.770058 -0.006878 0.609445
O93 O -0.006976 0.609541 0.216204
O94 O -0.006917 0.376496 0.769914
O95 O -0.006861 0.609567 0.770053
O96 O -0.007037 0.376586 0.216250
Si97 Si 0.243333 0.096353 0.390452
Si98 Si 0.742873 0.889823 0.595480
Si99 Si 0.742594 0.889815 0.390647
Si100 Si 0.243314 0.096338 0.595572
Si101 Si 0.742894 0.096382 0.595333
Si102 Si 0.243347 0.889848 0.390790
Si103 Si 0.243264 0.889734 0.595578
Si104 Si 0.742786 0.096332 0.390477
Si105 Si 0.390536 0.243302 0.096309
Si106 Si 0.595572 0.742868 0.889834
Si107 Si 0.390966 0.742570 0.889753
Si108 Si 0.595593 0.243404 0.096297
Si109 Si 0.595590 0.742890 0.096370
Si110 Si 0.390779 0.243218 0.889765
Si111 Si 0.595598 0.243494 0.889656
Si112 Si 0.390505 0.742863 0.096294
Si113 Si 0.096266 0.390856 0.243338
Si114 Si 0.889809 0.595678 0.742818
Si115 Si 0.889817 0.390583 0.742565
Si116 Si 0.096331 0.595470 0.243303
Si117 Si 0.096422 0.595565 0.742881
Si118 Si 0.889631 0.390920 0.243286
Si119 Si 0.889748 0.595623 0.243284
Si120 Si 0.096363 0.390543 0.742536
Si121 Si 0.096441 0.242993 0.595510
Si122 Si 0.889688 0.742949 0.390613
Si123 Si 0.889773 0.742859 0.595416
Si124 Si 0.096257 0.242721 0.389561
Si125 Si 0.096258 0.742751 0.390772
Si126 Si 0.889880 0.243562 0.595046
Si127 Si 0.889732 0.243285 0.389843
Si128 Si 0.096315 0.742675 0.595496
Si129 Si 0.243198 0.390428 0.889614
Si130 Si 0.742806 0.595542 0.096318
Si131 Si 0.742660 0.390917 0.096141
Si132 Si 0.243514 0.595527 0.889631
Si133 Si 0.743289 0.595894 0.889759
Si134 Si 0.243342 0.390846 0.096187
Si135 Si 0.243302 0.595462 0.096229
Si136 Si 0.743261 0.390383 0.889521
Si137 Si 0.390747 0.096254 0.742723
Si138 Si 0.595695 0.889721 0.242904
Si139 Si 0.390155 0.889792 0.242715
Si140 Si 0.595569 0.096434 0.742787
Si141 Si 0.595631 0.096416 0.243031
Si142 Si 0.390765 0.889745 0.742836
Si143 Si 0.595501 0.889871 0.742861
Si144 Si 0.390594 0.096400 0.243091
