# CIF file generated from SOD0.in
data_generated_cif
_audit_creation_method 'Generated by cp2k_to_cif'
_cell_length_a 8.956000
_cell_length_b 8.956000
_cell_length_c 8.956000
_cell_angle_alpha 90.000000
_cell_angle_beta 90.000000
_cell_angle_gamma 90.000000
loop_
_symmetry_equiv_pos_as_xyz
'x, y, z'
loop_
_atom_site_label
_atom_site_type_symbol
_atom_site_fract_x
_atom_site_fract_y
_atom_site_fract_z
O1 O 0.157185 0.511322 0.846447
O2 O 0.836928 0.477186 0.146428
O3 O 0.860943 0.535746 0.854641
O4 O 0.132917 0.470391 0.139588
O5 O 0.842964 0.146550 0.532815
O6 O 0.150725 0.854244 0.451976
O7 O 0.855486 0.853235 0.482694
O8 O 0.138948 0.145372 0.518419
O9 O 0.494548 0.854147 0.163863
O10 O 0.488789 0.145097 0.830164
O11 O 0.482082 0.849786 0.866384
O12 O 0.520293 0.146520 0.126206
O13 O 0.650296 0.017551 0.353337
O14 O 0.343173 -0.026313 0.639522
O15 O 0.354800 0.041511 0.348195
O16 O 0.639194 -0.033170 0.646424
O17 O 0.342747 0.645353 0.029917
O18 O 0.650265 0.353763 -0.043033
O19 O 0.354935 0.349653 -0.006610
O20 O 0.638798 0.646383 0.011024
O21 O 0.993418 0.366722 0.650250
O22 O 0.992856 0.633321 0.343319
O23 O -0.013820 0.336017 0.354659
O24 O 0.017926 0.663429 0.638932
Si25 Si 0.247273 0.494393 0.002165
Si26 Si 0.746965 0.503024 -0.008318
Si27 Si 0.990840 0.248998 0.513134
Si28 Si 1.004303 0.750656 0.480435
Si29 Si 0.503703 0.014150 0.247954
Si30 Si 0.489024 -0.015429 0.746055
Si31 Si 0.503881 0.248733 -0.021985
Si32 Si 0.490221 0.749187 0.016365
Si33 Si 0.247034 0.003423 0.489228
Si34 Si 0.747006 -0.004008 0.504109
Si35 Si 1.006099 0.518512 0.747380
Si36 Si 0.987786 0.480822 0.246335
