# CIF file generated from SOD1.in
data_generated_cif
_audit_creation_method 'Generated by cp2k_to_cif'
_cell_length_a 8.830525
_cell_length_b 8.830525
_cell_length_c 8.830525
_cell_angle_alpha 90.000000
_cell_angle_beta 90.000000
_cell_angle_gamma 90.000000
loop_
_symmetry_equiv_pos_as_xyz
'x, y, z'
loop_
_atom_site_label
_atom_site_type_symbol
_atom_site_fract_x
_atom_site_fract_y
_atom_site_fract_z
O1 O 0.172088 0.529891 0.852738
O2 O 0.833663 0.479779 0.154021
O3 O 0.873028 0.554886 0.864131
O4 O 0.133384 0.461257 0.146087
O5 O 0.852114 0.146788 0.568104
O6 O 0.153299 0.865598 0.438213
O7 O 0.856808 0.858252 0.474362
O8 O 0.148006 0.153751 0.536024
O9 O 0.513323 0.859909 0.185046
O10 O 0.488403 0.152985 0.821811
O11 O 0.469263 0.859999 0.884832
O12 O 0.537440 0.151221 0.121216
O13 O 0.653544 0.048642 0.372074
O14 O 0.352324 -0.036655 0.634056
O15 O 0.357506 0.062109 0.345912
O16 O 0.647460 -0.048431 0.661250
O17 O 0.343582 0.653546 0.062470
O18 O 0.660556 0.359555 -0.056197
O19 O 0.365433 0.359017 -0.001463
O20 O 0.639938 0.653280 0.012501
O21 O 1.001931 0.385180 0.653918
O22 O 0.999245 0.627829 0.353510
O23 O -0.023583 0.326569 0.360223
O24 O 0.030301 0.685300 0.646859
Si25 Si 0.253168 0.501652 0.014459
Si26 Si 0.751791 0.510733 -0.006551
Si27 Si 0.995049 0.253896 0.527680
Si28 Si 1.010095 0.758705 0.479904
Si29 Si 0.514139 0.029445 0.255427
Si30 Si 0.490700 -0.016830 0.751591
Si31 Si 0.512710 0.255007 -0.027376
Si32 Si 0.491947 0.757286 0.034519
Si33 Si 0.252829 0.011464 0.488319
Si34 Si 0.752122 0.001303 0.518800
Si35 Si 1.018105 0.536998 0.754042
Si36 Si 0.986685 0.475577 0.253909
