# CIF file generated from SOD2.in
data_generated_cif
_audit_creation_method 'Generated by cp2k_to_cif'
_cell_length_a 8.696050
_cell_length_b 8.696050
_cell_length_c 8.696050
_cell_angle_alpha 90.000000
_cell_angle_beta 90.000000
_cell_angle_gamma 90.000000
loop_
_symmetry_equiv_pos_as_xyz
'x, y, z'
loop_
_atom_site_label
_atom_site_type_symbol
_atom_site_fract_x
_atom_site_fract_y
_atom_site_fract_z
O1 O 0.185900 0.542166 0.858673
O2 O 0.838562 0.478846 0.153255
O3 O 0.885206 0.579513 0.864981
O4 O 0.139680 0.445502 0.147927
O5 O 0.860215 0.147026 0.593250
O6 O 0.160914 0.878166 0.419683
O7 O 0.865130 0.863805 0.464543
O8 O 0.159305 0.160849 0.548369
O9 O 0.523497 0.870533 0.197303
O10 O 0.501936 0.153711 0.814890
O11 O 0.457578 0.865753 0.895566
O12 O 0.567034 0.158916 0.117201
O13 O 0.658429 0.066643 0.389439
O14 O 0.366078 -0.041929 0.622926
O15 O 0.363884 0.087063 0.339501
O16 O 0.660103 -0.065665 0.672644
O17 O 0.351670 0.652693 0.086179
O18 O 0.672960 0.371877 -0.074237
O19 O 0.377793 0.359048 -0.002722
O20 O 0.647502 0.665505 0.015478
O21 O 1.010344 0.401970 0.653439
O22 O 1.010717 0.621681 0.358524
O23 O -0.027063 0.316445 0.364561
O24 O 0.053023 0.704640 0.646876
Si25 Si 0.263431 0.501655 0.022329
Si26 Si 0.761383 0.522416 -0.009791
Si27 Si 1.000509 0.257146 0.539107
Si28 Si 1.022618 0.765828 0.473554
Si29 Si 0.527640 0.046007 0.259482
Si30 Si 0.496952 -0.021940 0.752902
Si31 Si 0.529859 0.259756 -0.034791
Si32 Si 0.495159 0.764538 0.047157
Si33 Si 0.262653 0.021406 0.482231
Si34 Si 0.760736 0.002294 0.530428
Si35 Si 1.032654 0.554809 0.755402
Si36 Si 0.991545 0.467707 0.257192
