# CIF file generated from SOD3.in
data_generated_cif
_audit_creation_method 'Generated by cp2k_to_cif'
_cell_length_a 9.099475
_cell_length_b 9.099475
_cell_length_c 9.099475
_cell_angle_alpha 90.000000
_cell_angle_beta 90.000000
_cell_angle_gamma 90.000000
loop_
_symmetry_equiv_pos_as_xyz
'x, y, z'
loop_
_atom_site_label
_atom_site_type_symbol
_atom_site_fract_x
_atom_site_fract_y
_atom_site_fract_z
O1 O 0.133616 0.497692 0.845679
O2 O 0.838814 0.486260 0.137437
O3 O 0.840743 0.502810 0.844200
O4 O 0.132129 0.486107 0.138684
O5 O 0.840025 0.138824 0.497364
O6 O 0.131801 0.849428 0.481080
O7 O 0.838948 0.845522 0.486661
O8 O 0.133659 0.141878 0.497291
O9 O 0.486426 0.851055 0.139119
O10 O 0.481334 0.136231 0.843649
O11 O 0.480986 0.843484 0.846720
O12 O 0.491730 0.144503 0.136911
O13 O 0.630518 -0.002673 0.348851
O14 O 0.341119 -0.013640 0.633923
O15 O 0.338191 0.002662 0.341368
O16 O 0.634093 -0.013499 0.641678
O17 O 0.339694 0.638715 0.001903
O18 O 0.633238 0.347570 -0.019366
O19 O 0.339327 0.345803 -0.013390
O20 O 0.633104 0.641111 -0.003006
O21 O 0.985844 0.348880 0.641283
O22 O 0.985806 0.639065 0.340764
O23 O -0.014472 0.346212 0.349006
O24 O -0.008549 0.641876 0.634059
Si25 Si 0.236170 0.492391 -0.007146
Si26 Si 0.736449 0.494346 -0.009924
Si27 Si 0.985920 0.243617 0.495983
Si28 Si 0.986875 0.743901 0.486353
Si29 Si 0.486980 -0.001524 0.241318
Si30 Si 0.484678 -0.011250 0.741442
Si31 Si 0.486763 0.243656 -0.012690
Si32 Si 0.485353 0.743379 -0.004349
Si33 Si 0.236246 -0.005027 0.488716
Si34 Si 0.735985 -0.007601 0.493763
Si35 Si 0.987708 0.497813 0.741217
Si36 Si 0.985263 0.489688 0.241439
