# CIF file generated from TON0.in
data_generated_cif
_audit_creation_method 'Generated by cp2k_to_cif'
_cell_length_a 14.105000
_cell_length_b 17.842000
_cell_length_c 5.256000
_cell_angle_alpha 90.000000
_cell_angle_beta 90.000000
_cell_angle_gamma 90.000000
loop_
_symmetry_equiv_pos_as_xyz
'x, y, z'
loop_
_atom_site_label
_atom_site_type_symbol
_atom_site_fract_x
_atom_site_fract_y
_atom_site_fract_z
O1 O 0.276732 -0.017402 0.023929
O2 O 0.722602 0.017102 -0.015000
O3 O 0.722721 -0.017151 0.485160
O4 O 0.277275 0.018892 0.523902
O5 O 0.777310 0.517169 -0.014978
O6 O 0.222671 0.481186 0.023535
O7 O 0.223043 0.517362 0.523690
O8 O 0.777345 0.482871 0.484863
O9 O 0.408616 0.072269 0.194566
O10 O 0.591111 0.927713 0.811433
O11 O 0.591168 0.072078 0.311614
O12 O 0.408221 0.928202 0.698541
O13 O 0.908867 0.572294 0.311448
O14 O 0.091216 0.427537 0.694122
O15 O 0.091753 0.571811 0.198555
O16 O 0.908763 0.427818 0.811267
O17 O 0.232101 0.124431 0.188659
O18 O 0.767492 0.875261 0.811297
O19 O 0.767330 0.124670 0.311286
O20 O 0.231098 0.877240 0.689297
O21 O 0.732458 0.624745 0.311570
O22 O 0.267777 0.375539 0.688726
O23 O 0.268857 0.622863 0.189318
O24 O 0.732463 0.375294 0.811237
O25 O 0.093919 0.223103 0.312461
O26 O 0.907274 0.777556 0.699038
O27 O 0.906651 0.222706 0.197451
O28 O 0.095547 0.775097 0.811999
O29 O 0.592672 0.722462 0.199192
O30 O 0.405815 0.276789 0.812510
O31 O 0.404344 0.724989 0.311990
O32 O 0.592801 0.277333 0.698247
O33 O 0.231972 0.267421 0.015033
O34 O 0.760530 0.729516 -0.035361
O35 O 0.739436 0.770482 0.464565
O36 O 0.267875 0.232539 0.514973
O37 O 0.760433 0.270442 0.464241
O38 O 0.224629 0.740072 0.474103
O39 O 0.275272 0.760153 -0.025767
O40 O 0.739088 0.229552 -0.035703
O41 O -0.027908 0.324106 0.505900
O42 O 0.026930 0.677397 0.494317
O43 O 0.972883 0.672251 -0.005980
O44 O 0.027130 0.325438 0.005996
O45 O 0.527106 0.827719 0.494013
O46 O 0.472788 0.174570 0.505599
O47 O 0.527366 0.175250 0.005163
O48 O 0.473069 0.822584 -0.005755
Si49 Si 0.297710 0.049446 0.235574
Si50 Si 0.701988 0.950786 0.771165
Si51 Si 0.701979 0.049051 0.271187
Si52 Si 0.297456 0.951795 0.735902
Si53 Si 0.797977 0.549193 0.271120
Si54 Si 0.202094 0.450502 0.735364
Si55 Si 0.202528 0.548251 0.235706
Si56 Si 0.797918 0.450899 0.771069
Si57 Si 0.207472 0.212095 0.256920
Si58 Si 0.792533 0.787972 0.736470
Si59 Si 0.792081 0.211961 0.235965
Si60 Si 0.207520 0.788069 0.737003
Si61 Si 0.707432 0.711998 0.236536
Si62 Si 0.292302 0.287857 0.756923
Si63 Si 0.292357 0.712092 0.236986
Si64 Si 0.707455 0.288052 0.736027
Si65 Si -0.000017 0.274393 0.254778
Si66 Si 1.000569 0.725188 0.750043
Si67 Si 0.499379 0.774828 0.250020
Si68 Si 0.499664 0.225412 0.754927
Si69 Si 0.499885 0.124907 0.254471
Si70 Si 0.499825 0.875214 0.749863
Si71 Si 1.000140 0.624785 0.249923
Si72 Si -0.000083 0.374859 0.754308
