# CIF file generated from TON1.in
data_generated_cif
_audit_creation_method 'Generated by cp2k_to_cif'
_cell_length_a 13.893425
_cell_length_b 17.574370
_cell_length_c 5.177160
_cell_angle_alpha 90.000000
_cell_angle_beta 90.000000
_cell_angle_gamma 90.000000
loop_
_symmetry_equiv_pos_as_xyz
'x, y, z'
loop_
_atom_site_label
_atom_site_type_symbol
_atom_site_fract_x
_atom_site_fract_y
_atom_site_fract_z
O1 O 0.266109 0.021153 -0.100093
O2 O 0.734917 0.020476 -0.015604
O3 O 0.725726 -0.020940 0.484547
O4 O 0.272311 -0.023286 0.397546
O5 O 0.775610 0.520817 -0.026066
O6 O 0.216426 0.520511 -0.082614
O7 O 0.240262 0.479432 0.420557
O8 O 0.766894 0.478920 0.474464
O9 O 0.413399 0.060863 0.182608
O10 O 0.591572 0.936343 0.837576
O11 O 0.596339 0.072377 0.309212
O12 O 0.408379 0.936049 0.709782
O13 O 0.905456 0.570671 0.319615
O14 O 0.090348 0.429640 0.680588
O15 O 0.091617 0.564005 0.267775
O16 O 0.905514 0.426686 0.788298
O17 O 0.243011 0.123498 0.281238
O18 O 0.764655 0.872894 0.830367
O19 O 0.775991 0.123806 0.332522
O20 O 0.231780 0.876347 0.767856
O21 O 0.727032 0.623513 0.324095
O22 O 0.264397 0.376603 0.793168
O23 O 0.268200 0.622912 0.267402
O24 O 0.727118 0.375924 0.830924
O25 O 0.096654 0.219275 0.277391
O26 O 0.910012 0.777315 0.744114
O27 O 0.908405 0.228769 0.178975
O28 O 0.098277 0.767056 0.819817
O29 O 0.591518 0.726164 0.209699
O30 O 0.408506 0.279614 0.789812
O31 O 0.405114 0.726932 0.330524
O32 O 0.596050 0.271400 0.669476
O33 O 0.235647 0.230278 -0.071555
O34 O 0.755946 0.722698 -0.044294
O35 O 0.748223 0.771490 0.457191
O36 O 0.268325 0.270400 0.430493
O37 O 0.776209 0.268054 0.505807
O38 O 0.223836 0.760969 0.440688
O39 O 0.280442 0.738935 -0.058255
O40 O 0.727915 0.231968 0.005785
O41 O -0.015623 0.307422 0.559345
O42 O 0.014713 0.692143 0.438903
O43 O 0.985376 0.648445 -0.059519
O44 O 0.029164 0.343193 0.057487
O45 O 0.530624 0.829575 0.527074
O46 O 0.465432 0.170054 0.493621
O47 O 0.526299 0.173467 -0.005748
O48 O 0.469171 0.832771 0.027204
Si49 Si 0.297597 0.045751 0.191811
Si50 Si 0.705180 0.952008 0.780455
Si51 Si 0.708737 0.049026 0.275820
Si52 Si 0.293376 0.952320 0.695506
Si53 Si 0.793171 0.548233 0.270865
Si54 Si 0.203722 0.451497 0.705088
Si55 Si 0.205046 0.546397 0.217253
Si56 Si 0.793160 0.450798 0.766654
Si57 Si 0.211993 0.211637 0.230299
Si58 Si 0.793431 0.786267 0.744694
Si59 Si 0.796060 0.212874 0.256317
Si60 Si 0.209405 0.785703 0.741112
Si61 Si 0.706646 0.711493 0.239365
Si62 Si 0.293626 0.288556 0.732431
Si63 Si 0.293758 0.712856 0.242010
Si64 Si 0.707636 0.286753 0.754939
Si65 Si 0.004170 0.275783 0.268506
Si66 Si 1.001863 0.720083 0.736969
Si67 Si 0.499263 0.779765 0.273555
Si68 Si 0.499243 0.222926 0.737820
Si69 Si 0.499947 0.120291 0.242840
Si70 Si 0.499719 0.882432 0.773971
Si71 Si 0.999519 0.620114 0.238974
Si72 Si 0.002051 0.375686 0.770624
