# CIF file generated from TON2.in
data_generated_cif
_audit_creation_method 'Generated by cp2k_to_cif'
_cell_length_a 13.681850
_cell_length_b 17.306740
_cell_length_c 5.098300
_cell_angle_alpha 90.000000
_cell_angle_beta 90.000000
_cell_angle_gamma 90.000000
loop_
_symmetry_equiv_pos_as_xyz
'x, y, z'
loop_
_atom_site_label
_atom_site_type_symbol
_atom_site_fract_x
_atom_site_fract_y
_atom_site_fract_z
O1 O -1.780161 -0.680760 5.400688
O2 O -1.410362 -0.642834 5.147957
O3 O -1.333595 -0.658965 5.689505
O4 O -1.825607 -0.640153 5.929361
O5 O -1.340085 -0.171228 5.282354
O6 O -1.887304 -0.159624 5.259266
O7 O -1.835768 -0.175118 5.776715
O8 O -1.282321 -0.138364 5.791304
O9 O -1.715938 -0.568201 5.588290
O10 O -1.476620 0.244594 5.856332
O11 O -1.519872 -0.605178 5.594554
O12 O -1.656284 0.277174 6.023426
O13 O -1.177610 -0.106190 5.380376
O14 O -2.001053 -0.226328 5.937502
O15 O -1.992571 -0.096085 5.540637
O16 O -1.192689 -0.241146 6.112747
O17 O -1.902241 -0.550610 5.566718
O18 O -1.292490 0.233332 6.014818
O19 O -1.356424 -0.527953 5.381279
O20 O -1.830896 0.216361 6.054614
O21 O -1.315656 -0.023495 5.476519
O22 O -1.838519 -0.295860 6.090372
O23 O -1.820221 -0.039813 5.554310
O24 O -1.371466 -0.273564 5.900047
O25 O -2.007615 -0.420951 5.581545
O26 O -1.170892 0.112775 6.057328
O27 O -1.192508 -0.444523 5.455161
O28 O -1.987608 0.116641 5.913413
O29 O -1.482463 0.052947 5.561103
O30 O -1.688339 -0.388692 6.127324
O31 O -1.671642 0.070059 5.428125
O32 O -1.490727 -0.387353 6.057611
O33 O -1.838418 -0.384260 5.457969
O34 O -1.367129 0.098925 5.175920
O35 O -1.302533 0.120493 5.678564
O36 O -1.847353 -0.450372 5.937607
O37 O -1.364217 -0.431619 5.784900
O38 O -1.807208 0.063669 5.844586
O39 O -1.861701 0.103684 5.338168
O40 O -1.319567 -0.378658 5.249343
O41 O -2.145611 -0.316275 5.694094
O42 O -2.124658 0.013317 5.698889
O43 O -1.048755 0.005726 5.213729
O44 O -2.064438 -0.338257 5.214995
O45 O -1.612156 0.139387 5.812118
O46 O -1.602776 -0.455543 5.744207
O47 O -1.585619 -0.509916 5.237211
O48 O -1.544330 0.178174 5.282968
Si49 Si -1.816906 -0.614902 5.615948
Si50 Si -1.378279 0.292649 5.925547
Si51 Si -1.409480 -0.606066 5.454269
Si52 Si -1.770559 0.295212 6.095918
Si53 Si -1.287127 -0.115306 5.490639
Si54 Si -1.890307 -0.217592 6.028643
Si55 Si -1.879760 -0.120022 5.551499
Si56 Si -1.296681 -0.209656 6.015434
Si57 Si -1.897426 -0.456779 5.623878
Si58 Si -1.289766 0.136835 5.982618
Si59 Si -1.310453 -0.444334 5.496964
Si60 Si -1.869852 0.123940 6.030139
Si61 Si -1.367425 0.062156 5.481654
Si62 Si -1.804499 -0.380902 6.145143
Si63 Si -1.790572 0.051728 5.538650
Si64 Si -1.381511 -0.362003 5.999912
Si65 Si -2.105443 -0.379801 5.484287
Si66 Si -1.084029 0.061295 5.955612
Si67 Si -1.573463 0.112029 5.528133
Si68 Si -1.593223 -0.434403 6.066096
Si69 Si -1.606210 -0.532078 5.554448
Si70 Si -1.581014 0.209723 5.988307
Si71 Si -1.089730 -0.045689 5.457511
Si72 Si -2.098489 -0.280278 5.986024
