# CIF file generated from TON3.in
data_generated_cif
_audit_creation_method 'Generated by cp2k_to_cif'
_cell_length_a 14.316575
_cell_length_b 18.109630
_cell_length_c 5.334840
_cell_angle_alpha 90.000000
_cell_angle_beta 90.000000
_cell_angle_gamma 90.000000
loop_
_symmetry_equiv_pos_as_xyz
'x, y, z'
loop_
_atom_site_label
_atom_site_type_symbol
_atom_site_fract_x
_atom_site_fract_y
_atom_site_fract_z
O1 O 0.276150 -0.011682 0.015262
O2 O 0.724608 -0.000443 0.015997
O3 O 0.717218 0.000032 0.516001
O4 O 0.279909 0.011461 0.515542
O5 O 0.794197 0.503230 -0.005914
O6 O 0.216044 0.488581 0.034585
O7 O 0.224537 0.513495 0.533926
O8 O 0.767905 0.496804 0.493878
O9 O 0.408255 0.073380 0.212275
O10 O 0.590068 0.926019 0.786740
O11 O 0.590259 0.073720 0.271157
O12 O 0.407207 0.925581 0.722220
O13 O 0.906315 0.578116 0.293696
O14 O 0.092752 0.426265 0.732310
O15 O 0.089441 0.574684 0.264360
O16 O 0.909085 0.425991 0.720468
O17 O 0.235187 0.124547 0.213427
O18 O 0.764739 0.875130 0.745279
O19 O 0.764658 0.124729 0.269391
O20 O 0.232002 0.875738 0.713035
O21 O 0.731273 0.622836 0.240272
O22 O 0.268411 0.377863 0.721960
O23 O 0.261909 0.625156 0.213764
O24 O 0.735200 0.375775 0.775983
O25 O 0.094721 0.220947 0.242552
O26 O 0.903336 0.774738 0.759039
O27 O 0.905725 0.221013 0.230126
O28 O 0.092512 0.775903 0.778936
O29 O 0.592101 0.721430 0.238334
O30 O 0.406255 0.276720 0.768870
O31 O 0.403532 0.721950 0.283390
O32 O 0.594442 0.277916 0.716029
O33 O 0.249770 0.264852 0.027368
O34 O 0.754479 0.761118 0.049156
O35 O 0.740652 0.737368 0.547802
O36 O 0.250030 0.238241 0.526293
O37 O 0.750989 0.265745 0.452394
O38 O 0.244120 0.734442 0.537355
O39 O 0.253475 0.766328 0.035710
O40 O 0.749687 0.235438 -0.046503
O41 O 0.002021 0.321842 0.486087
O42 O 0.003775 0.695141 0.444780
O43 O 0.994411 0.658480 -0.053818
O44 O -0.001556 0.323594 -0.014329
O45 O 0.515445 0.820109 0.519375
O46 O 0.482919 0.183336 0.463028
O47 O 0.517429 0.169357 -0.036005
O48 O 0.481899 0.825892 0.017847
Si49 Si 0.298943 0.049025 0.240266
Si50 Si 0.699746 0.950093 0.766193
Si51 Si 0.700126 0.049496 0.264476
Si52 Si 0.297818 0.950267 0.742154
Si53 Si 0.799053 0.549668 0.255312
Si54 Si 0.201598 0.451795 0.755505
Si55 Si 0.198948 0.550018 0.259969
Si56 Si 0.800177 0.450689 0.745270
Si57 Si 0.208563 0.212294 0.253433
Si58 Si 0.789987 0.786964 0.771980
Si59 Si 0.791933 0.211912 0.227542
Si60 Si 0.206229 0.788220 0.764881
Si61 Si 0.705597 0.710953 0.270020
Si62 Si 0.292638 0.289296 0.756505
Si63 Si 0.289648 0.712101 0.265289
Si64 Si 0.708579 0.288460 0.726753
Si65 Si 0.000233 0.271828 0.235039
Si66 Si 0.998706 0.725437 0.733694
Si67 Si 0.498197 0.772916 0.262887
Si68 Si 0.500283 0.226202 0.729449
Si69 Si 0.499856 0.126269 0.229575
Si70 Si 0.498580 0.873397 0.761517
Si71 Si 0.998532 0.627997 0.235557
Si72 Si 0.000866 0.373352 0.733190
