# CIF file generated from WEI0.in
data_generated_cif
_audit_creation_method 'Generated by cp2k_to_cif'
_cell_length_a 11.803000
_cell_length_b 10.278000
_cell_length_c 9.989000
_cell_angle_alpha 90.000000
_cell_angle_beta 90.000000
_cell_angle_gamma 90.000000
loop_
_symmetry_equiv_pos_as_xyz
'x, y, z'
loop_
_atom_site_label
_atom_site_type_symbol
_atom_site_fract_x
_atom_site_fract_y
_atom_site_fract_z
O1 O 0.419317 0.090995 0.157620
O2 O -0.419316 -0.090996 0.157620
O3 O 0.419317 -0.090995 0.342380
O4 O -0.419316 0.090996 0.342380
O5 O -0.419316 -0.090995 -0.157620
O6 O 0.419317 0.090995 -0.157620
O7 O -0.419316 0.090995 0.657620
O8 O 0.419317 -0.090995 0.657620
O9 O 0.919316 0.590995 0.157620
O10 O 0.080684 0.409004 0.157620
O11 O 0.919316 0.409004 0.342380
O12 O 0.080684 0.590996 0.342380
O13 O 0.080684 0.409004 -0.157620
O14 O 0.919316 0.590996 -0.157620
O15 O 0.080684 0.590996 0.657620
O16 O 0.919316 0.409005 0.657620
O17 O 0.237337 0.086072 -0.000000
O18 O -0.237337 -0.086071 0.000000
O19 O 0.237337 -0.086071 0.500001
O20 O -0.237337 0.086071 0.500000
O21 O 0.737337 0.586071 -0.000001
O22 O 0.262663 0.413929 -0.000000
O23 O 0.737337 0.413929 0.500001
O24 O 0.262663 0.586071 0.500001
O25 O 0.223509 0.000001 0.250000
O26 O -0.223508 -0.000001 0.250000
O27 O -0.223509 0.000000 -0.250000
O28 O 0.223509 -0.000000 -0.250000
O29 O 0.723509 0.499999 0.250000
O30 O 0.276491 0.500001 0.250000
O31 O 0.276492 0.500000 -0.250000
O32 O 0.723509 0.500001 -0.250000
O33 O 0.250001 0.250000 0.206030
O34 O -0.250000 -0.250000 0.206030
O35 O 0.250001 -0.250000 0.293970
O36 O -0.250000 0.249999 0.293970
O37 O -0.250000 -0.250000 -0.206030
O38 O 0.250001 0.250000 -0.206030
O39 O -0.250001 0.250000 0.706030
O40 O 0.250002 -0.250000 0.706030
Si41 Si 0.282134 0.106786 0.152020
Si42 Si -0.282133 -0.106787 0.152020
Si43 Si 0.282134 -0.106785 0.347980
Si44 Si -0.282133 0.106785 0.347980
Si45 Si -0.282133 -0.106785 -0.152020
Si46 Si 0.282134 0.106785 -0.152020
Si47 Si -0.282133 0.106786 0.652020
Si48 Si 0.282134 -0.106785 0.652020
Si49 Si 0.782133 0.606785 0.152020
Si50 Si 0.217867 0.393214 0.152020
Si51 Si 0.782133 0.393214 0.347980
Si52 Si 0.217867 0.606787 0.347980
Si53 Si 0.217867 0.393214 -0.152020
Si54 Si 0.782133 0.606786 -0.152020
Si55 Si 0.217867 0.606786 0.652020
Si56 Si 0.782133 0.393214 0.652020
Si57 Si 0.000000 0.500000 0.250000
Si58 Si 0.000000 -0.500000 -0.250000
Si59 Si 0.500000 1.000000 0.250000
Si60 Si 0.500000 0.000000 -0.250000
