# CIF file generated from WEI1.in
data_generated_cif
_audit_creation_method 'Generated by cp2k_to_cif'
_cell_length_a 11.625955
_cell_length_b 10.123830
_cell_length_c 9.839165
_cell_angle_alpha 90.000000
_cell_angle_beta 90.000000
_cell_angle_gamma 90.000000
loop_
_symmetry_equiv_pos_as_xyz
'x, y, z'
loop_
_atom_site_label
_atom_site_type_symbol
_atom_site_fract_x
_atom_site_fract_y
_atom_site_fract_z
O1 O 0.417825 0.087510 0.151848
O2 O -0.418056 -0.087279 0.151711
O3 O 0.417817 -0.087519 0.348146
O4 O -0.418077 0.087263 0.348297
O5 O -0.418170 -0.087207 -0.151674
O6 O 0.417680 0.087594 -0.151913
O7 O -0.418199 0.087182 0.651663
O8 O 0.417652 -0.087625 0.651925
O9 O 0.917804 0.587516 0.151864
O10 O 0.081961 0.412709 0.151727
O11 O 0.917783 0.412467 0.348126
O12 O 0.081954 0.587280 0.348276
O13 O 0.081838 0.412790 -0.151678
O14 O 0.917668 0.587590 -0.151918
O15 O 0.081814 0.587187 0.651668
O16 O 0.917633 0.412380 0.651930
O17 O 0.228403 0.095936 0.000044
O18 O -0.228416 -0.095954 -0.000017
O19 O 0.228398 -0.095932 0.499947
O20 O -0.228418 0.095962 0.500014
O21 O 0.728396 0.595944 0.000041
O22 O 0.271589 0.404034 -0.000019
O23 O 0.728392 0.404074 0.499956
O24 O 0.271585 0.595966 0.500013
O25 O 0.218452 0.000004 0.249989
O26 O -0.218510 0.000013 0.250003
O27 O -0.218559 0.000023 -0.250004
O28 O 0.218394 0.000016 -0.249996
O29 O 0.718432 0.500012 0.249989
O30 O 0.281508 0.500003 0.250000
O31 O 0.281451 0.500019 -0.250010
O32 O 0.718377 0.500020 -0.249994
O33 O 0.249217 0.249910 0.216308
O34 O -0.250875 -0.250087 0.216289
O35 O 0.249190 -0.249905 0.283693
O36 O -0.250998 0.250111 0.283740
O37 O -0.251310 -0.250133 -0.216178
O38 O 0.248678 0.249851 -0.216175
O39 O -0.251431 0.250161 0.716156
O40 O 0.248588 -0.249829 0.716156
Si41 Si 0.279009 0.107923 0.152733
Si42 Si -0.279286 -0.107773 0.152645
Si43 Si 0.279001 -0.107915 0.347257
Si44 Si -0.279314 0.107770 0.347364
Si45 Si -0.279410 -0.107719 -0.152625
Si46 Si 0.278854 0.107950 -0.152712
Si47 Si -0.279446 0.107726 0.652606
Si48 Si 0.278821 -0.107939 0.652717
Si49 Si 0.778983 0.607905 0.152737
Si50 Si 0.220735 0.392238 0.152654
Si51 Si 0.778957 0.392102 0.347253
Si52 Si 0.220724 0.607764 0.347343
Si53 Si 0.220595 0.392306 -0.152625
Si54 Si 0.778847 0.607928 -0.152715
Si55 Si 0.220566 0.607706 0.652605
Si56 Si 0.778805 0.392083 0.652722
Si57 Si -0.000129 0.499990 0.250002
Si58 Si -0.000277 -0.500026 -0.250005
Si59 Si 0.499873 0.999989 0.249996
Si60 Si 0.499726 -0.000025 -0.250001
