# CIF file generated from WEI2.in
data_generated_cif
_audit_creation_method 'Generated by cp2k_to_cif'
_cell_length_a 11.448910
_cell_length_b 9.969660
_cell_length_c 9.689330
_cell_angle_alpha 90.000000
_cell_angle_beta 90.000000
_cell_angle_gamma 90.000000
loop_
_symmetry_equiv_pos_as_xyz
'x, y, z'
loop_
_atom_site_label
_atom_site_type_symbol
_atom_site_fract_x
_atom_site_fract_y
_atom_site_fract_z
O1 O 0.424869 0.095165 0.152143
O2 O -0.424870 -0.095161 0.152146
O3 O 0.424871 -0.095161 0.347854
O4 O -0.424872 0.095156 0.347851
O5 O -0.424869 -0.095159 -0.152147
O6 O 0.424870 0.095164 -0.152144
O7 O -0.424869 0.095162 0.652146
O8 O 0.424868 -0.095165 0.652145
O9 O 0.924871 0.595160 0.152147
O10 O 0.075132 0.404839 0.152143
O11 O 0.924869 0.404838 0.347854
O12 O 0.075133 0.595160 0.347857
O13 O 0.075131 0.404839 -0.152146
O14 O 0.924869 0.595162 -0.152145
O15 O 0.075132 0.595160 0.652146
O16 O 0.924871 0.404838 0.652144
O17 O 0.236564 0.078180 -0.000001
O18 O -0.236564 -0.078178 -0.000003
O19 O 0.236564 -0.078179 0.499997
O20 O -0.236564 0.078182 0.499999
O21 O 0.736562 0.578183 0.000001
O22 O 0.263434 0.421818 -0.000001
O23 O 0.736565 0.421824 0.500001
O24 O 0.263435 0.578176 0.500001
O25 O 0.221455 -0.000004 0.250004
O26 O -0.221455 -0.000001 0.250001
O27 O -0.221454 0.000008 -0.250007
O28 O 0.221455 0.000001 -0.250000
O29 O 0.721455 0.500005 0.249998
O30 O 0.278542 0.500004 0.250006
O31 O 0.278541 0.499999 -0.250000
O32 O 0.721457 0.499992 -0.250007
O33 O 0.249998 0.250002 0.204427
O34 O -0.250000 -0.250001 0.204424
O35 O 0.250000 -0.249999 0.295576
O36 O -0.249999 0.250001 0.295581
O37 O -0.249998 -0.249998 -0.204429
O38 O 0.250000 0.250001 -0.204423
O39 O -0.249999 0.249997 0.704421
O40 O 0.250001 -0.250004 0.704426
Si41 Si 0.283260 0.107275 0.150599
Si42 Si -0.283260 -0.107259 0.150615
Si43 Si 0.283266 -0.107272 0.349401
Si44 Si -0.283264 0.107266 0.349400
Si45 Si -0.283256 -0.107279 -0.150582
Si46 Si 0.283243 0.107289 -0.150585
Si47 Si -0.283261 0.107266 0.650594
Si48 Si 0.283263 -0.107286 0.650584
Si49 Si 0.783227 0.607233 0.150601
Si50 Si 0.216776 0.392769 0.150613
Si51 Si 0.783221 0.392761 0.349402
Si52 Si 0.216778 0.607233 0.349369
Si53 Si 0.216784 0.392761 -0.150599
Si54 Si 0.783223 0.607231 -0.150601
Si55 Si 0.216787 0.607239 0.650603
Si56 Si 0.783213 0.392775 0.650593
Si57 Si 0.000001 0.499990 0.249999
Si58 Si 0.000001 -0.500006 -0.249992
Si59 Si 0.499996 1.000003 0.250001
Si60 Si 0.499997 0.000002 -0.250003
