# CIF file generated from WEI3.in
data_generated_cif
_audit_creation_method 'Generated by cp2k_to_cif'
_cell_length_a 11.980045
_cell_length_b 10.432170
_cell_length_c 10.138835
_cell_angle_alpha 90.000000
_cell_angle_beta 90.000000
_cell_angle_gamma 90.000000
loop_
_symmetry_equiv_pos_as_xyz
'x, y, z'
loop_
_atom_site_label
_atom_site_type_symbol
_atom_site_fract_x
_atom_site_fract_y
_atom_site_fract_z
O1 O 0.419716 0.089033 0.158272
O2 O -0.419700 -0.088859 0.158279
O3 O 0.419593 -0.088560 0.341751
O4 O -0.419620 0.088787 0.341736
O5 O -0.419711 -0.088962 -0.158280
O6 O 0.419709 0.088938 -0.158272
O7 O -0.419609 0.088681 0.658261
O8 O 0.419604 -0.088661 0.658253
O9 O 0.920479 0.590726 0.158873
O10 O 0.079522 0.409291 0.158873
O11 O 0.920496 0.409255 0.341134
O12 O 0.079507 0.590765 0.341135
O13 O 0.079522 0.409283 -0.158874
O14 O 0.920479 0.590718 -0.158873
O15 O 0.079505 0.590757 0.658866
O16 O 0.920496 0.409246 0.658867
O17 O 0.241872 0.080981 -0.000002
O18 O -0.241872 -0.080966 0.000001
O19 O 0.241829 -0.080909 0.500000
O20 O -0.241835 0.080910 0.500002
O21 O 0.743722 0.580731 -0.000000
O22 O 0.256278 0.419276 -0.000002
O23 O 0.743725 0.419221 0.500002
O24 O 0.256275 0.580789 0.500000
O25 O 0.228107 0.000082 0.249947
O26 O -0.228110 -0.000048 0.249981
O27 O -0.228110 -0.000064 -0.249963
O28 O 0.228107 0.000068 -0.249963
O29 O 0.729919 0.499968 0.250007
O30 O 0.270082 0.500057 0.250007
O31 O 0.270082 0.500047 -0.250008
O32 O 0.729918 0.499957 -0.250005
O33 O 0.250922 0.250127 0.196187
O34 O -0.250928 -0.250098 0.196183
O35 O 0.250913 -0.250011 0.303820
O36 O -0.250902 0.250043 0.303817
O37 O -0.250923 -0.250111 -0.196186
O38 O 0.250927 0.250115 -0.196187
O39 O -0.250907 0.250029 0.696183
O40 O 0.250908 -0.250023 0.696183
Si41 Si 0.284260 0.105731 0.150595
Si42 Si -0.284256 -0.105686 0.150605
Si43 Si 0.284189 -0.105566 0.349377
Si44 Si -0.284198 0.105615 0.349387
Si45 Si -0.284259 -0.105709 -0.150601
Si46 Si 0.284260 0.105712 -0.150603
Si47 Si -0.284195 0.105594 0.650622
Si48 Si 0.284192 -0.105587 0.650620
Si49 Si 0.784947 0.606237 0.150754
Si50 Si 0.215053 0.393786 0.150755
Si51 Si 0.784964 0.393709 0.349252
Si52 Si 0.215038 0.606316 0.349252
Si53 Si 0.215054 0.393777 -0.150757
Si54 Si 0.784949 0.606227 -0.150756
Si55 Si 0.215037 0.606307 0.650749
Si56 Si 0.784963 0.393699 0.650750
Si57 Si 0.000000 0.500009 0.250011
Si58 Si 0.000001 -0.499999 -0.250011
Si59 Si 0.500000 1.000083 0.249961
Si60 Si 0.500002 -0.000001 -0.249959
