data_full-opt-small_1
_symmetry_space_group_name_H-M 'C M'
_space_group_IT_number                 8
_cell_length_a                                 5.05800000
_cell_length_b                                 8.40000000
_cell_length_c                                 20.00000000
_cell_angle_alpha                            90.000000
_cell_angle_beta                             90.000000
_cell_angle_gamma                            90.000000
loop_
_atom_site_label
_atom_site_type_symbol
_atom_site_fract_x
_atom_site_fract_y
_atom_site_fract_z
Al1 Al 1.270000000000E-02 3.313000000000E-01 -4.000000000000E-04
H2 H 1.456000000000E-01 -3.081487911020E-33 -1.826000000000E-01
H3 H -4.347000000000E-01 -2.797641527436E-17 8.640000000000E-02
H4 H 2.455000000000E-01 -2.238000000000E-01 8.750000000000E-02
O5 O -1.750000000000E-02 0.000000000000E+00 -1.569000000000E-01
O6 O -3.073000000000E-01 -5.595283054872E-17 -4.850000000000E-02
O7 O 1.720000000000E-01 1.602000000000E-01 -4.830000000000E-02
O8 O 4.092000000000E-01 5.595283054872E-17 5.680000000000E-02
O9 O -1.861000000000E-01 1.951000000000E-01 5.640000000000E-02
Si10 Si 6.400000000000E-03 8.742629773237E-19 -7.500000000000E-02
# Energy: -1.3000831271387E+03


data_full-opt-small_2
_symmetry_space_group_name_H-M 'C M'
_space_group_IT_number                 8
_cell_length_a                                 5.04183364
_cell_length_b                                 8.40183316
_cell_length_c                                 20.00000000
_cell_angle_alpha                            90.000000
_cell_angle_beta                             90.000000
_cell_angle_gamma                            90.000000
loop_
_atom_site_label
_atom_site_type_symbol
_atom_site_fract_x
_atom_site_fract_y
_atom_site_fract_z
Al1 Al 1.621747475153E-02 3.312471162202E-01 -3.720338200159E-03
H2 H 1.498077557980E-01 3.329565681147E-19 -1.860080483269E-01
H3 H -4.312466592041E-01 -2.770315500091E-17 8.311385294349E-02
H4 H 2.488033419115E-01 -2.238807762074E-01 8.418040526212E-02
O5 O -1.379959824883E-02 2.928100219856E-19 -1.602996029192E-01
O6 O -3.037517794000E-01 -5.567206250736E-17 -5.183333913193E-02
O7 O 1.757226488329E-01 1.602613592528E-01 -5.163197709343E-02
O8 O 4.122542840494E-01 5.619451376038E-17 5.346966142211E-02
O9 O -1.824579884282E-01 1.950917783235E-01 5.307758485000E-02
Si10 Si 1.024807429348E-02 1.178758217096E-18 -7.837214370226E-02
# Energy: -1.3000836144937E+03


data_full-opt-small_3
_symmetry_space_group_name_H-M 'C M'
_space_group_IT_number                 8
_cell_length_a                                 4.93405037
_cell_length_b                                 8.43925282
_cell_length_c                                 20.00000000
_cell_angle_alpha                            90.000000
_cell_angle_beta                             90.000000
_cell_angle_gamma                            90.000000
loop_
_atom_site_label
_atom_site_type_symbol
_atom_site_fract_x
_atom_site_fract_y
_atom_site_fract_z
Al1 Al -5.732993401526E-03 3.311645804330E-01 -3.598057454613E-03
H2 H 1.356585488044E-01 9.654240924238E-18 -1.866682618807E-01
H3 H -4.551499147354E-01 -6.462378236061E-17 8.351981632614E-02
H4 H 2.252918976208E-01 -2.250376387607E-01 8.459315934466E-02
O5 O -3.153809392554E-02 -3.537776346816E-18 -1.609703566662E-01
O6 O -3.263761561467E-01 -8.258073144252E-17 -5.193271136451E-02
O7 O 1.558915741202E-01 1.606426694376E-01 -5.183305909054E-02
O8 O 3.862252334879E-01 8.386026352238E-17 5.350807931832E-02
O9 O -2.030485122316E-01 1.948298482103E-01 5.345224181171E-02
Si10 Si -8.543573283028E-03 -9.654233342461E-19 -7.890931654977E-02
# Energy: -1.3000853796080E+03


data_full-opt-small_4
_symmetry_space_group_name_H-M 'C M'
_space_group_IT_number                 8
_cell_length_a                                 4.91672702
_cell_length_b                                 8.45604553
_cell_length_c                                 20.00000000
_cell_angle_alpha                            90.000000
_cell_angle_beta                             90.000000
_cell_angle_gamma                            90.000000
loop_
_atom_site_label
_atom_site_type_symbol
_atom_site_fract_x
_atom_site_fract_y
_atom_site_fract_z
Al1 Al -5.170314446176E-02 3.314574819968E-01 -3.590903483952E-03
H2 H 9.112293844580E-02 8.636943829695E-18 -1.866315454488E-01
H3 H 4.969026770357E-01 -6.578550502738E-17 8.359799408765E-02
H4 H 1.788602668207E-01 -2.256094841767E-01 8.470727516167E-02
O5 O -7.687232363341E-02 -4.592076577379E-18 -1.610060181939E-01
O6 O -3.739999715294E-01 -8.372071124571E-17 -5.203644576914E-02
O7 O 1.103654975160E-01 1.606848716161E-01 -5.201417215087E-02
O8 O 3.381743776388E-01 8.278919816830E-17 5.345279197159E-02
O9 O -2.482387783506E-01 1.946508126132E-01 5.359387903155E-02
Si10 Si -5.473558535090E-02 -2.037063123945E-18 -7.899496268887E-02
# Energy: -1.3000855300517E+03


data_full-opt-small_5
_symmetry_space_group_name_H-M 'C M'
_space_group_IT_number                 8
_cell_length_a                                 4.90000811
_cell_length_b                                 8.47408510
_cell_length_c                                 20.00000000
_cell_angle_alpha                            90.000000
_cell_angle_beta                             90.000000
_cell_angle_gamma                            90.000000
loop_
_atom_site_label
_atom_site_type_symbol
_atom_site_fract_x
_atom_site_fract_y
_atom_site_fract_z
Al1 Al 3.949975513315E-02 3.318470785598E-01 -3.585568032098E-03
H2 H 1.874170311260E-01 4.694794859062E-18 -1.865533505002E-01
H3 H -4.105410186426E-01 -2.630712299575E-17 8.370752549555E-02
H4 H 2.694464354089E-01 -2.262794201623E-01 8.480587433843E-02
O5 O 1.859162988693E-02 3.747860533404E-18 -1.610187984147E-01
O6 O -2.810176904936E-01 -5.368661471570E-17 -5.216501060236E-02
O7 O 2.019644791716E-01 1.607114815054E-01 -5.222101074703E-02
O8 O 4.307608472907E-01 6.064533151537E-17 5.339166161462E-02
O9 O -1.561461379190E-01 1.944282234065E-01 5.373686085907E-02
Si10 Si 3.983338871941E-02 4.655961730290E-18 -7.905991280402E-02
# Energy: -1.3000855820934E+03


data_full-opt-small_6
_symmetry_space_group_name_H-M 'C M'
_space_group_IT_number                 8
_cell_length_a                                 4.88202068
_cell_length_b                                 8.50550426
_cell_length_c                                 20.00000000
_cell_angle_alpha                            90.000000
_cell_angle_beta                             90.000000
_cell_angle_gamma                            90.000000
loop_
_atom_site_label
_atom_site_type_symbol
_atom_site_fract_x
_atom_site_fract_y
_atom_site_fract_z
Al1 Al -5.214438466866E-02 3.331463607398E-01 -3.554911804237E-03
H2 H 9.733419663797E-02 -8.596547731477E-18 -1.862314085472E-01
H3 H 4.928933704244E-01 -1.447055753645E-18 8.408025407277E-02
H4 H 1.758987993945E-01 -2.278399189799E-01 8.478513897994E-02
O5 O -7.281297184040E-02 1.235417365055E-18 -1.609751917794E-01
O6 O -3.765771435783E-01 -3.709626423366E-17 -5.247428716185E-02
O7 O 1.104110524404E-01 1.607627606854E-01 -5.258952583235E-02
O8 O 3.351504649692E-01 3.170974587301E-17 5.329905436775E-02
O9 O -2.456042762909E-01 1.938780356486E-01 5.390514664968E-02
Si10 Si -5.292846930092E-02 7.652504143730E-19 -7.901581265414E-02
# Energy: -1.3000855867488E+03


data_full-opt-small_7
_symmetry_space_group_name_H-M 'C M'
_space_group_IT_number                 8
_cell_length_a                                 4.88491609
_cell_length_b                                 8.50515733
_cell_length_c                                 20.00000000
_cell_angle_alpha                            90.000000
_cell_angle_beta                             90.000000
_cell_angle_gamma                            90.000000
loop_
_atom_site_label
_atom_site_type_symbol
_atom_site_fract_x
_atom_site_fract_y
_atom_site_fract_z
Al1 Al -2.925575716283E-02 3.332267260968E-01 -3.540833349742E-03
H2 H 1.204719235553E-01 -6.788387263682E-18 -1.862374135375E-01
H3 H -4.835307322013E-01 3.953467337506E-19 8.407427021880E-02
H4 H 1.988281275748E-01 -2.278308463716E-01 8.475955448954E-02
O5 O -4.960696708298E-02 3.048913589980E-18 -1.610021293605E-01
O6 O -3.531654190115E-01 -3.526669147589E-17 -5.246117300655E-02
O7 O 1.332144921957E-01 1.608166190616E-01 -5.255199346049E-02
O8 O 3.587910221974E-01 3.355720138018E-17 5.330829755868E-02
O9 O -2.225794138955E-01 1.939042703875E-01 5.388816120758E-02
Si10 Si -2.973568910797E-02 2.577713169814E-18 -7.901704704788E-02
# Energy: -1.3000856200003E+03


data_full-opt-small_8
_symmetry_space_group_name_H-M 'C M'
_space_group_IT_number                 8
_cell_length_a                                 4.91217925
_cell_length_b                                 8.46641009
_cell_length_c                                 20.00000000
_cell_angle_alpha                            90.000000
_cell_angle_beta                             90.000000
_cell_angle_gamma                            90.000000
loop_
_atom_site_label
_atom_site_type_symbol
_atom_site_fract_x
_atom_site_fract_y
_atom_site_fract_z
Al1 Al -7.428321597226E-02 3.323806372729E-01 -3.559388446558E-03
H2 H 6.890820041207E-02 -1.464350438534E-17 -1.863961882420E-01
H3 H 4.720825589931E-01 2.623326223133E-17 8.399350255535E-02
H4 H 1.547380877876E-01 -2.264475168525E-01 8.450904641687E-02
O5 O -9.972081635351E-02 4.668366432968E-18 -1.609738863995E-01
O6 O -3.979412830948E-01 -1.667467736508E-17 -5.221581677172E-02
O7 O 8.747587746560E-02 1.607257024262E-01 -5.207472013675E-02
O8 O 3.143755323485E-01 1.263386655205E-17 5.348620985524E-02
O9 O -2.695814713877E-01 1.943956408356E-01 5.354392379304E-02
Si10 Si -7.766862697427E-02 3.143402301337E-18 -7.895658615143E-02
# Energy: -1.3000856923818E+03


data_full-opt-small_9
_symmetry_space_group_name_H-M 'C M'
_space_group_IT_number                 8
_cell_length_a                                 4.91228508
_cell_length_b                                 8.46684626
_cell_length_c                                 20.00000000
_cell_angle_alpha                            90.000000
_cell_angle_beta                             90.000000
_cell_angle_gamma                            90.000000
loop_
_atom_site_label
_atom_site_type_symbol
_atom_site_fract_x
_atom_site_fract_y
_atom_site_fract_z
Al1 Al -6.282577330960E-02 3.324156729270E-01 -3.557050612845E-03
H2 H 8.054344561548E-02 -1.793331313060E-17 -1.863898216487E-01
H3 H 4.837335002479E-01 5.607290428911E-17 8.399004919966E-02
H4 H 1.661914412319E-01 -2.264688631015E-01 8.450359814292E-02
O5 O -8.810855580114E-02 1.073779703021E-17 -1.609778255044E-01
O6 O -3.863601028236E-01 5.947010900928E-18 -5.221453855748E-02
O7 O 9.893711341202E-02 1.607426682061E-01 -5.206771331718E-02
O8 O 3.260219050031E-01 -4.280884991953E-18 5.348639860755E-02
O9 O -2.580466996741E-01 1.944002459830E-01 5.354030413590E-02
Si10 Si -6.611122555089E-02 7.986231880132E-18 -7.895823285246E-02
# Energy: -1.3000856991610E+03


data_full-opt-small_10
_symmetry_space_group_name_H-M 'C M'
_space_group_IT_number                 8
_cell_length_a                                 4.89547891
_cell_length_b                                 8.48777487
_cell_length_c                                 20.00000000
_cell_angle_alpha                            90.000000
_cell_angle_beta                             90.000000
_cell_angle_gamma                            90.000000
loop_
_atom_site_label
_atom_site_type_symbol
_atom_site_fract_x
_atom_site_fract_y
_atom_site_fract_z
Al1 Al -8.588032808885E-02 3.332206116720E-01 -3.558787648988E-03
H2 H 6.084289601696E-02 -1.491322681549E-17 -1.862145444277E-01
H3 H 4.588360132416E-01 2.000786959190E-17 8.433419961938E-02
H4 H 1.416611084874E-01 -2.274847771845E-01 8.448112431255E-02
O5 O -1.088837965689E-01 2.756385578679E-18 -1.609840785066E-01
O6 O -4.102396281153E-01 -2.162296088282E-17 -5.245954444288E-02
O7 O 7.603675451612E-02 1.606917996345E-01 -5.228905696127E-02
O8 O 3.017665832930E-01 1.407599717367E-17 5.346855327671E-02
O9 O -2.798459253163E-01 1.940544247274E-01 5.362392689859E-02
Si10 Si -8.789164974392E-02 1.313170494666E-18 -7.897746073303E-02
# Energy: -1.3000857388931E+03


data_full-opt-small_11
_symmetry_space_group_name_H-M 'C M'
_space_group_IT_number                 8
_cell_length_a                                 4.89574305
_cell_length_b                                 8.48808803
_cell_length_c                                 20.00000000
_cell_angle_alpha                            90.000000
_cell_angle_beta                             90.000000
_cell_angle_gamma                            90.000000
loop_
_atom_site_label
_atom_site_type_symbol
_atom_site_fract_x
_atom_site_fract_y
_atom_site_fract_z
Al1 Al -6.298537767414E-02 3.332557522252E-01 -3.499809156183E-03
H2 H 8.414883130132E-02 -1.201864839898E-17 -1.861475577888E-01
H3 H 4.822288247142E-01 2.291077724255E-17 8.438083714503E-02
H4 H 1.645899925780E-01 -2.274940432753E-01 8.453333989091E-02
O5 O -8.560222282890E-02 5.647245069904E-18 -1.609316796640E-01
O6 O -3.869831295677E-01 -1.873644677864E-17 -5.239736476864E-02
O7 O 9.895706407569E-02 1.607098045898E-01 -5.221572471284E-02
O8 O 3.251265927556E-01 1.697827539369E-17 5.353035025873E-02
O9 O -2.568610278495E-01 1.940723317403E-01 5.367304631077E-02
Si10 Si -6.470174312261E-02 4.192731754910E-18 -7.892330292538E-02
# Energy: -1.3000857494644E+03


data_full-opt-small_12
_symmetry_space_group_name_H-M 'C M'
_space_group_IT_number                 8
_cell_length_a                                 4.90195240
_cell_length_b                                 8.48150009
_cell_length_c                                 20.00000000
_cell_angle_alpha                            90.000000
_cell_angle_beta                             90.000000
_cell_angle_gamma                            90.000000
loop_
_atom_site_label
_atom_site_type_symbol
_atom_site_fract_x
_atom_site_fract_y
_atom_site_fract_z
Al1 Al -2.773447578377E-02 3.331626479873E-01 -1.256931418993E-02
H2 H 1.190262189205E-01 -7.697817865631E-18 -1.952441482312E-01
H3 H -4.813062859494E-01 2.748038401407E-17 7.529233827482E-02
H4 H 2.000518731499E-01 -2.272238586543E-01 7.538571052885E-02
O5 O -5.051920998184E-02 1.000819438318E-17 -1.700307165851E-01
O6 O -3.508836833027E-01 -1.422343960607E-17 -6.141465219735E-02
O7 O 1.340755079917E-01 1.607049855366E-01 -6.112291190861E-02
O8 O 3.615324263043E-01 2.146804778924E-17 4.453459816230E-02
O9 O -2.218707729081E-01 1.942340403044E-01 4.450648646980E-02
Si10 Si -2.940226325658E-02 8.578745436515E-18 -8.799790780587E-02
# Energy: -1.3000857798757E+03


data_full-opt-small_13
_symmetry_space_group_name_H-M 'C M'
_space_group_IT_number                 8
_cell_length_a                                 4.90213579
_cell_length_b                                 8.48310720
_cell_length_c                                 20.00000000
_cell_angle_alpha                            90.000000
_cell_angle_beta                             90.000000
_cell_angle_gamma                            90.000000
loop_
_atom_site_label
_atom_site_type_symbol
_atom_site_fract_x
_atom_site_fract_y
_atom_site_fract_z
Al1 Al -6.681469587085E-03 3.332774674876E-01 1.495663397230E-02
H2 H 1.406242227057E-01 2.318262976911E-18 -1.676834235898E-01
H3 H -4.597969662963E-01 -1.039689534762E-18 1.028461156668E-01
H4 H 2.209855972647E-01 -2.272691135742E-01 1.028779115526E-01
O5 O -2.904731325510E-02 9.129800084990E-18 -1.425186855572E-01
O6 O -3.295667189915E-01 -3.439480600722E-17 -3.390722248392E-02
O7 O 1.550892563456E-01 1.606847508939E-01 -3.354454524646E-02
O8 O 3.830469693853E-01 4.703779846427E-17 7.210128674994E-02
O9 O -2.006975609472E-01 1.942697943791E-01 7.200488245867E-02
Si10 Si -8.115632174368E-03 9.035138561001E-18 -6.047374433271E-02
# Energy: -1.3000857832916E+03


data_full-opt-small_14
_symmetry_space_group_name_H-M 'C M'
_space_group_IT_number                 8
_cell_length_a                                 4.90201502
_cell_length_b                                 8.48402758
_cell_length_c                                 20.00000000
_cell_angle_alpha                            90.000000
_cell_angle_beta                             90.000000
_cell_angle_gamma                            90.000000
loop_
_atom_site_label
_atom_site_type_symbol
_atom_site_fract_x
_atom_site_fract_y
_atom_site_fract_z
Al1 Al -5.447910938585E-03 3.333214613566E-01 -1.333632627541E-02
H2 H 1.420853455241E-01 2.387034665782E-18 -1.959391103346E-01
H3 H -4.583831284768E-01 -9.803063736462E-19 7.457400741896E-02
H4 H 2.221425919745E-01 -2.272634437247E-01 7.457286165212E-02
O5 O -2.768137465019E-02 9.192162180430E-18 -1.708042126055E-01
O6 O -3.283176559809E-01 -3.434142228959E-17 -6.221489634404E-02
O7 O 1.562699940256E-01 1.606392710824E-01 -6.179646533595E-02
O8 O 3.844191162598E-01 4.710539935404E-17 4.384680462475E-02
O9 O -1.994935639706E-01 1.943004875137E-01 4.370167172650E-02
Si10 Si -6.845684436510E-03 9.093345262163E-18 -8.875584289050E-02
# Energy: -1.3000857844422E+03


data_full-opt-small_15
_symmetry_space_group_name_H-M 'C M'
_space_group_IT_number                 8
_cell_length_a                                 4.90167451
_cell_length_b                                 8.48531151
_cell_length_c                                 20.00000000
_cell_angle_alpha                            90.000000
_cell_angle_beta                             90.000000
_cell_angle_gamma                            90.000000
loop_
_atom_site_label
_atom_site_type_symbol
_atom_site_fract_x
_atom_site_fract_y
_atom_site_fract_z
Al1 Al -1.094423772921E-02 3.333639248685E-01 -4.158306154699E-02
H2 H 1.367715338973E-01 2.145456867168E-18 -2.241392782232E-01
H3 H -4.637863290382E-01 -1.236054882909E-18 4.634622077981E-02
H4 H 2.165660052177E-01 -2.272481931129E-01 4.632418446324E-02
O5 O -3.309902820866E-02 8.942970815847E-18 -1.990409889232E-01
O6 O -3.339363742437E-01 -3.460488478853E-17 -9.048115704544E-02
O7 O 1.507012037622E-01 1.605877192359E-01 -9.000750593930E-02
O8 O 3.789529072851E-01 4.686088762530E-17 1.563442721646E-02
O9 O -2.050457725063E-01 1.943301883101E-01 1.545385210847E-02
Si10 Si -1.237995671036E-02 8.839149180910E-18 -1.169906422223E-01
# Energy: -1.3000857850173E+03


data_full-opt-small_16
_symmetry_space_group_name_H-M 'C M'
_space_group_IT_number                 8
_cell_length_a                                 4.90153149
_cell_length_b                                 8.48582636
_cell_length_c                                 20.00000000
_cell_angle_alpha                            90.000000
_cell_angle_beta                             90.000000
_cell_angle_gamma                            90.000000
loop_
_atom_site_label
_atom_site_type_symbol
_atom_site_fract_x
_atom_site_fract_y
_atom_site_fract_z
Al1 Al -1.642735705982E-02 3.333705848813E-01 -6.506006590325E-02
H2 H 1.313253519875E-01 1.469812130371E-18 -2.475954480350E-01
H3 H -4.692574863611E-01 -1.918838760750E-18 2.286575735902E-02
H4 H 2.110628103651E-01 -2.272282628710E-01 2.285130370876E-02
O5 O -3.859264764469E-02 8.260291300341E-18 -2.225132886227E-01
O6 O -3.395355925184E-01 -3.530270456452E-17 -1.139667806853E-01
O7 O 1.451715400776E-01 1.605696792881E-01 -1.134743413936E-01
O8 O 3.734386243022E-01 4.617841064958E-17 -7.835597459599E-03
O9 O -2.105791516997E-01 1.943444589183E-01 -8.018421361584E-03
Si10 Si -1.792861325366E-02 8.149771817388E-18 -1.404617913888E-01
# Energy: -1.3000857851451E+03


data_full-opt-small_17
_symmetry_space_group_name_H-M 'C M'
_space_group_IT_number                 8
_cell_length_a                                 4.90149520
_cell_length_b                                 8.48596783
_cell_length_c                                 20.00000000
_cell_angle_alpha                            90.000000
_cell_angle_beta                             90.000000
_cell_angle_gamma                            90.000000
loop_
_atom_site_label
_atom_site_type_symbol
_atom_site_fract_x
_atom_site_fract_y
_atom_site_fract_z
Al1 Al -1.809892928531E-02 3.333654984581E-01 -6.487990908500E-02
H2 H 1.296732920804E-01 9.709802339286E-18 -2.474054694973E-01
H3 H -4.709124808624E-01 -3.219383161773E-17 2.303703764588E-02
H4 H 2.093904530926E-01 -2.272158964001E-01 2.303628565440E-02
O5 O -4.026457757146E-02 5.601457147365E-18 -2.223309473045E-01
O6 O -3.412546093882E-01 -5.726583056195E-17 -1.137891679674E-01
O7 O 1.434761616019E-01 1.605716956507E-01 -1.132947855948E-01
O8 O 3.717617404133E-01 6.994210493012E-17 -7.660289154178E-03
O9 O -2.122766928098E-01 1.943506535257E-01 -7.833644754000E-03
Si10 Si -1.962761003662E-02 6.813119811958E-18 -1.402797732694E-01
# Energy: -1.3000857852474E+03


data_full-opt-small_18
_symmetry_space_group_name_H-M 'C M'
_space_group_IT_number                 8
_cell_length_a                                 4.90153304
_cell_length_b                                 8.48602504
_cell_length_c                                 20.00000000
_cell_angle_alpha                            90.000000
_cell_angle_beta                             90.000000
_cell_angle_gamma                            90.000000
loop_
_atom_site_label
_atom_site_type_symbol
_atom_site_fract_x
_atom_site_fract_y
_atom_site_fract_z
Al1 Al -1.828172265825E-02 3.333615921354E-01 -6.007890209737E-02
H2 H 1.295260847267E-01 9.703144714569E-18 -2.425976230201E-01
H3 H -4.710799535538E-01 -3.220186760855E-17 2.782960367439E-02
H4 H 2.092026830856E-01 -2.272050261912E-01 2.783937917924E-02
O5 O -4.043299681162E-02 5.593699328458E-18 -2.175316318349E-01
O6 O -3.414606345290E-01 -5.727553866651E-17 -1.089910991367E-01
O7 O 1.432686812233E-01 1.605784317996E-01 -1.084951896324E-01
O8 O 3.715902459784E-01 6.993451370590E-17 -2.866225691229E-03
O9 O -2.124765159586E-01 1.943577573295E-01 -3.029511219478E-03
Si10 Si -1.982662353275E-02 6.803973617442E-18 -1.354789811114E-01
# Energy: -1.3000857853199E+03


data_full-opt-small_19
_symmetry_space_group_name_H-M 'C M'
_space_group_IT_number                 8
_cell_length_a                                 4.90156325
_cell_length_b                                 8.48599951
_cell_length_c                                 20.00000000
_cell_angle_alpha                            90.000000
_cell_angle_beta                             90.000000
_cell_angle_gamma                            90.000000
loop_
_atom_site_label
_atom_site_type_symbol
_atom_site_fract_x
_atom_site_fract_y
_atom_site_fract_z
Al1 Al -1.783650871135E-02 3.333593330650E-01 -5.733259800154E-02
H2 H 1.300115411075E-01 -6.911032614270E-18 -2.398450413264E-01
H3 H -4.706366501379E-01 2.821414008129E-17 3.057454946969E-02
H4 H 2.096331853073E-01 -2.271989875998E-01 3.058585038723E-02
O5 O -3.996591421001E-02 1.077749657192E-17 -2.147868055683E-01
O6 O -3.410174658396E-01 -1.348370234428E-17 -1.062472718314E-01
O7 O 1.436962644926E-01 1.605839763170E-01 -1.057492534713E-01
O8 O 3.720453388749E-01 2.227480747180E-17 -1.247837555491E-04
O9 O -2.120405551453E-01 1.943627172430E-01 -2.819116469909E-04
Si10 Si -1.938320722347E-02 9.345020615237E-18 -1.327337076695E-01
# Energy: -1.3000857853850E+03


data_full-opt-small_20
_symmetry_space_group_name_H-M 'C M'
_space_group_IT_number                 8
_cell_length_a                                 4.90157819
_cell_length_b                                 8.48595405
_cell_length_c                                 20.00000000
_cell_angle_alpha                            90.000000
_cell_angle_beta                             90.000000
_cell_angle_gamma                            90.000000
loop_
_atom_site_label
_atom_site_type_symbol
_atom_site_fract_x
_atom_site_fract_y
_atom_site_fract_z
Al1 Al -1.761577859992E-02 3.333584842801E-01 -5.903548016735E-02
H2 H 1.302679694420E-01 -6.899344190285E-18 -2.415442332753E-01
H3 H -4.704366919311E-01 2.822359393620E-17 2.887384827919E-02
H4 H 2.098353046364E-01 -2.271977628282E-01 2.888150324042E-02
O5 O -3.972482302428E-02 1.078858215293E-17 -2.164918944086E-01
O6 O -3.407939860422E-01 -1.347324617539E-17 -1.079521123836E-01
O7 O 1.439065626586E-01 1.605865386790E-01 -1.074519048036E-01
O8 O 3.722637039098E-01 2.228460583505E-17 -1.830190458743E-03
O9 O -2.118243059255E-01 1.943646769887E-01 -1.984404456212E-03
Si10 Si -1.916063396245E-02 9.355244333966E-18 -1.344377508112E-01
# Energy: -1.3000857535804E+03


data_full-opt-small_21
_symmetry_space_group_name_H-M 'C M'
_space_group_IT_number                 8
_cell_length_a                                 4.90200441
_cell_length_b                                 8.48601092
_cell_length_c                                 20.00000000
_cell_angle_alpha                            90.000000
_cell_angle_beta                             90.000000
_cell_angle_gamma                            90.000000
loop_
_atom_site_label
_atom_site_type_symbol
_atom_site_fract_x
_atom_site_fract_y
_atom_site_fract_z
Al1 Al -1.726157803406E-02 3.333604311822E-01 -5.405678438710E-02
H2 H 1.307874961709E-01 -1.522175785748E-17 -2.365432978330E-01
H3 H -4.700491161786E-01 5.841434077814E-17 3.384776198613E-02
H4 H 2.101543106960E-01 -2.271818274296E-01 3.385916365038E-02
O5 O -3.925212213530E-02 1.336439813757E-17 -2.115144628800E-01
O6 O -3.404660225417E-01 8.400385637592E-18 -1.029882336347E-01
O7 O 1.442058350677E-01 1.605784889624E-01 -1.024639033613E-01
O8 O 3.726667306656E-01 -1.563147659408E-18 3.141533033928E-03
O9 O -2.114919650293E-01 1.943790719923E-01 2.998499660517E-03
Si10 Si -1.883077167505E-02 1.060376840721E-17 -1.294566862195E-01
# Energy: -1.3000857536612E+03


data_full-opt-small_22
_symmetry_space_group_name_H-M 'C M'
_space_group_IT_number                 8
_cell_length_a                                 4.90214232
_cell_length_b                                 8.48602383
_cell_length_c                                 20.00000000
_cell_angle_alpha                            90.000000
_cell_angle_beta                             90.000000
_cell_angle_gamma                            90.000000
loop_
_atom_site_label
_atom_site_type_symbol
_atom_site_fract_x
_atom_site_fract_y
_atom_site_fract_z
Al1 Al -1.710575863940E-02 3.333574507593E-01 -5.189555267904E-02
H2 H 1.310077249876E-01 -1.521163101761E-17 -2.343762588088E-01
H3 H -4.698827306361E-01 5.842189587515E-17 3.600765946460E-02
H4 H 2.102988245318E-01 -2.271812862928E-01 3.602029839314E-02
O5 O -3.903929689471E-02 1.337415662592E-17 -2.093532527858E-01
O6 O -3.403124815518E-01 8.407373220291E-18 -1.008352523132E-01
O7 O 1.443547124343E-01 1.605714211808E-01 -1.002969963450E-01
O8 O 3.728390621146E-01 -1.555177747095E-18 5.300069527325E-03
O9 O -2.113346686818E-01 1.943783735227E-01 5.161947496005E-03
Si10 Si -1.867476322384E-02 1.061092340065E-17 -1.272949266181E-01
# Energy: -1.3000857536413E+03


data_full-opt-small_23
_symmetry_space_group_name_H-M 'C M'
_space_group_IT_number                 8
_cell_length_a                                 4.90214030
_cell_length_b                                 8.48603174
_cell_length_c                                 20.00000000
_cell_angle_alpha                            90.000000
_cell_angle_beta                             90.000000
_cell_angle_gamma                            90.000000
loop_
_atom_site_label
_atom_site_type_symbol
_atom_site_fract_x
_atom_site_fract_y
_atom_site_fract_z
Al1 Al -1.700937512463E-02 3.333535835122E-01 -5.135581906539E-02
H2 H 1.311595348371E-01 -6.792805053871E-18 -2.338335429854E-01
H3 H -4.697860400586E-01 2.829680625768E-17 3.654611544578E-02
H4 H 2.103834727498E-01 -2.271868461288E-01 3.655877000662E-02
O5 O -3.889561985394E-02 1.088619506658E-17 -2.088140668644E-01
O6 O -3.402192293296E-01 -1.340816235749E-17 -1.003036059485E-01
O7 O 1.444542697899E-01 1.605668831107E-01 -9.975305035889E-02
O8 O 3.729428423988E-01 2.236811314558E-17 5.836342748499E-03
O9 O -2.112266071083E-01 1.943728640791E-01 5.703900851496E-03
Si10 Si -1.857403797931E-02 9.424307018215E-18 -1.267559081857E-01
# Energy: -1.3000857535924E+03


data_full-opt-small_24
_symmetry_space_group_name_H-M 'C M'
_space_group_IT_number                 8
_cell_length_a                                 4.90208572
_cell_length_b                                 8.48601018
_cell_length_c                                 20.00000000
_cell_angle_alpha                            90.000000
_cell_angle_beta                             90.000000
_cell_angle_gamma                            90.000000
loop_
_atom_site_label
_atom_site_type_symbol
_atom_site_fract_x
_atom_site_fract_y
_atom_site_fract_z
Al1 Al -1.701398945780E-02 3.333521376997E-01 -5.149078430285E-02
H2 H 1.311652073857E-01 -1.520436602814E-17 -2.339682089208E-01
H3 H -4.697924998481E-01 5.842609208834E-17 3.641118259078E-02
H4 H 2.103743146322E-01 -2.271909366265E-01 3.642289779407E-02
O5 O -3.889368579383E-02 1.338087738234E-17 -2.089493969497E-01
O6 O -3.402274199028E-01 8.411266921583E-18 -1.004405955707E-01
O7 O 1.444551715859E-01 1.605668536048E-01 -9.988717987788E-02
O8 O 3.729387551301E-01 -1.550778903988E-18 5.700450745174E-03
O9 O -2.112218769561E-01 1.943688292999E-01 5.569440402664E-03
Si10 Si -1.857816780633E-02 1.061530271822E-17 -1.268911163595E-01
# Energy: -1.3000857535900E+03


data_full-opt-small_25
_symmetry_space_group_name_H-M 'C M'
_space_group_IT_number                 8
_cell_length_a                                 4.90204967
_cell_length_b                                 8.48600143
_cell_length_c                                 20.00000000
_cell_angle_alpha                            90.000000
_cell_angle_beta                             90.000000
_cell_angle_gamma                            90.000000
loop_
_atom_site_label
_atom_site_type_symbol
_atom_site_fract_x
_atom_site_fract_y
_atom_site_fract_z
Al1 Al -1.703468414263E-02 3.333518906741E-01 -5.145754678276E-02
H2 H 1.311465577496E-01 -1.520523670859E-17 -2.339338456293E-01
H3 H -4.698127151817E-01 5.842521820610E-17 3.644493695539E-02
H4 H 2.103513789233E-01 -2.271927321820E-01 3.645530648847E-02
O5 O -3.891690852055E-02 1.337981629802E-17 -2.089161374149E-01
O6 O -3.402518800098E-01 8.410183478782E-18 -1.004076518685E-01
O7 O 1.444367598289E-01 1.605674864340E-01 -9.985403502221E-02
O8 O 3.729193570100E-01 -1.551711540666E-18 5.733789455028E-03
O9 O -2.112374690544E-01 1.943674533392E-01 5.602657423465E-03
Si10 Si -1.860084557591E-02 1.061426431785E-17 -1.268579662475E-01
# Energy: -1.3000857546559E+03


data_full-opt-small_26
_symmetry_space_group_name_H-M 'C M'
_space_group_IT_number                 8
_cell_length_a                                 4.90204967
_cell_length_b                                 8.48600143
_cell_length_c                                 20.00000000
_cell_angle_alpha                            90.000000
_cell_angle_beta                             90.000000
_cell_angle_gamma                            90.000000
loop_
_atom_site_label
_atom_site_type_symbol
_atom_site_fract_x
_atom_site_fract_y
_atom_site_fract_z
Al1 Al -1.703468414263E-02 3.333518906741E-01 -5.145754678276E-02
H2 H 1.311465577496E-01 -1.520523670859E-17 -2.339338456293E-01
H3 H -4.698127151817E-01 5.842521820610E-17 3.644493695539E-02
H4 H 2.103513789233E-01 -2.271927321820E-01 3.645530648847E-02
O5 O -3.891690852055E-02 1.337981629802E-17 -2.089161374149E-01
O6 O -3.402518800098E-01 8.410183478782E-18 -1.004076518685E-01
O7 O 1.444367598289E-01 1.605674864340E-01 -9.985403502221E-02
O8 O 3.729193570100E-01 -1.551711540666E-18 5.733789455028E-03
O9 O -2.112374690544E-01 1.943674533392E-01 5.602657423465E-03
Si10 Si -1.860084557591E-02 1.061426431785E-17 -1.268579662475E-01


