data_nt12-fullopt-dzvp_1
_symmetry_space_group_name_H-M 'P 1'
_space_group_IT_number                 1
_cell_length_a                                 60.00000000
_cell_length_b                                 60.00000000
_cell_length_c                                 8.48600000
_cell_angle_alpha                            90.000000
_cell_angle_beta                             90.000000
_cell_angle_gamma                            90.000000
loop_
_atom_site_label
_atom_site_type_symbol
_atom_site_fract_x
_atom_site_fract_y
_atom_site_fract_z
Al1 Al -3.381246999594E-01 -4.991082887852E-01 3.294496963073E-01
Al2 Al -3.438990178116E-01 -4.572581564236E-01 -1.704944182374E-01
Al3 Al -3.603321358092E-01 -4.183375002150E-01 3.295238752499E-01
Al4 Al -3.862459627597E-01 -3.849838232275E-01 -1.704805115575E-01
Al5 Al -4.198914711668E-01 -3.594432056576E-01 3.295236325931E-01
Al6 Al -4.589751135130E-01 -3.434313938079E-01 -1.704994319943E-01
H7 H -4.013321711443E-01 -4.841719375400E-01 0.000000000000E+00
H8 H -3.129297608054E-01 4.567936704398E-01 0.000000000000E+00
H9 H -3.096401683016E-01 -4.743020014393E-01 -2.229678621500E-01
H10 H -4.088083346718E-01 -4.592953202713E-01 5.000000000000E-01
H11 H -3.081090286520E-01 -4.932820056600E-01 5.000000000000E-01
H12 H -3.228281540609E-01 -4.259288180954E-01 2.771435824331E-01
H13 H -4.224824638682E-01 -4.370734125232E-01 0.000000000000E+00
H14 H -3.164925590621E-01 -4.437886080246E-01 0.000000000000E+00
H15 H -3.480543007729E-01 -3.826260755242E-01 -2.229855683594E-01
H16 H -4.414632373045E-01 -4.191396948660E-01 5.000000000000E-01
H17 H -3.372673545433E-01 -3.982741354068E-01 5.000000000000E-01
H18 H -3.835890671092E-01 -3.473121606877E-01 2.770017567020E-01
H19 H -4.644288200297E-01 -4.066776781345E-01 0.000000000000E+00
H20 H -3.691651039484E-01 -3.596509351738E-01 0.000000000000E+00
H21 H -4.270210497853E-01 -3.223692504804E-01 -2.228974737450E-01
H22 H -4.898564453777E-01 -4.005594409786E-01 5.000000000000E-01
H23 H -4.099143433458E-01 -3.305559319128E-01 5.000000000000E-01
H24 H -4.755078768539E-01 -3.094800715654E-01 2.771368223408E-01
O25 O -3.934005730056E-01 -4.986601535795E-01 0.000000000000E+00
O26 O -3.571842833307E-01 4.750064393414E-01 0.000000000000E+00
O27 O -3.547413997804E-01 -4.869689127526E-01 1.602900116564E-01
O28 O -3.229795536187E-01 -4.589908422793E-01 0.000000000000E+00
O29 O -3.206995599990E-01 4.810858783534E-01 2.013568196413E-01
O30 O -3.973788312181E-01 -4.712158893173E-01 5.000000000000E-01
O31 O -3.555730365055E-01 -4.872077333955E-01 5.000000000000E-01
O32 O -3.631053005300E-01 -4.498456432792E-01 -3.397118877184E-01
O33 O -3.396677952702E-01 -4.146255839950E-01 5.000000000000E-01
O34 O -3.219314732534E-01 -4.718437714522E-01 -2.987127617299E-01
O35 O -4.083667980260E-01 -4.456460551069E-01 0.000000000000E+00
O36 O -3.638397396207E-01 -4.502791540868E-01 0.000000000000E+00
O37 O -3.807891514287E-01 -4.161435705856E-01 1.603068793000E-01
O38 O -3.672379526150E-01 -3.760662544608E-01 0.000000000000E+00
O39 O -3.353291482307E-01 -4.267296299127E-01 2.013288429298E-01
O40 O -4.256081206009E-01 -4.237587930993E-01 5.000000000000E-01
O41 O -3.813975704666E-01 -4.167536119672E-01 5.000000000000E-01
O42 O -4.065757665967E-01 -3.881406163996E-01 -3.396900158343E-01
O43 O -4.038324013314E-01 -3.459225079743E-01 5.000000000000E-01
O44 O -3.599322826458E-01 -3.866318040179E-01 -2.987231796248E-01
O45 O -4.479182841918E-01 -4.070524621267E-01 0.000000000000E+00
O46 O -4.070057319274E-01 -3.888897781150E-01 0.000000000000E+00
O47 O -4.387108176212E-01 -3.677318911428E-01 1.603089214212E-01
O48 O -4.469669414742E-01 -3.262167365592E-01 0.000000000000E+00
O49 O -3.940355992936E-01 -3.542484344261E-01 2.013091680679E-01
O50 O -4.737993178143E-01 -3.966848113468E-01 5.000000000000E-01
O51 O -4.389374360578E-01 -3.685761826878E-01 5.000000000000E-01
O52 O -4.750120083918E-01 -3.563167061211E-01 -3.396905970464E-01
O53 O -4.937694476409E-01 -3.183779448257E-01 5.000000000000E-01
O54 O -4.353361493278E-01 -3.317484229918E-01 -2.986432933406E-01
Si55 Si -3.657376330404E-01 -4.986750675274E-01 0.000000000000E+00
Si56 Si -3.706652469726E-01 -4.640132294153E-01 5.000000000000E-01
Si57 Si -3.844239574412E-01 -4.317818402004E-01 0.000000000000E+00
Si58 Si -4.060564096316E-01 -4.041865818028E-01 5.000000000000E-01
Si59 Si -4.340720776347E-01 -3.831037855219E-01 0.000000000000E+00
Si60 Si -4.665796955764E-01 -3.699815597853E-01 5.000000000000E-01
# Energy: -3.1182846623069E+04


data_nt12-fullopt-dzvp_2
_symmetry_space_group_name_H-M 'P 1'
_space_group_IT_number                 1
_cell_length_a                                 60.00000000
_cell_length_b                                 60.00000000
_cell_length_c                                 8.48600000
_cell_angle_alpha                            90.000000
_cell_angle_beta                             90.000000
_cell_angle_gamma                            90.000000
loop_
_atom_site_label
_atom_site_type_symbol
_atom_site_fract_x
_atom_site_fract_y
_atom_site_fract_z
Al1 Al -3.381246999594E-01 -4.991082887852E-01 3.294496963073E-01
Al2 Al -3.438990178117E-01 -4.572581564236E-01 -1.704944182374E-01
Al3 Al -3.603321358092E-01 -4.183375002150E-01 3.295238752499E-01
Al4 Al -3.862459627597E-01 -3.849838232275E-01 -1.704805115575E-01
Al5 Al -4.198914711668E-01 -3.594432056576E-01 3.295236325931E-01
Al6 Al -4.589751135130E-01 -3.434313938079E-01 -1.704994319943E-01
H7 H -4.013321711443E-01 -4.841719375400E-01 0.000000000000E+00
H8 H -3.129297608054E-01 4.567936704398E-01 0.000000000000E+00
H9 H -3.096401683016E-01 -4.743020014393E-01 -2.229678621500E-01
H10 H -4.088083346718E-01 -4.592953202713E-01 5.000000000000E-01
H11 H -3.081090286520E-01 -4.932820056600E-01 5.000000000000E-01
H12 H -3.228281540609E-01 -4.259288180954E-01 2.771435824331E-01
H13 H -4.224824638682E-01 -4.370734125233E-01 0.000000000000E+00
H14 H -3.164925590621E-01 -4.437886080246E-01 0.000000000000E+00
H15 H -3.480543007729E-01 -3.826260755242E-01 -2.229855683594E-01
H16 H -4.414632373045E-01 -4.191396948660E-01 5.000000000000E-01
H17 H -3.372673545433E-01 -3.982741354068E-01 5.000000000000E-01
H18 H -3.835890671092E-01 -3.473121606877E-01 2.770017567020E-01
H19 H -4.644288200297E-01 -4.066776781345E-01 0.000000000000E+00
H20 H -3.691651039484E-01 -3.596509351738E-01 0.000000000000E+00
H21 H -4.270210497853E-01 -3.223692504803E-01 -2.228974737450E-01
H22 H -4.898564453777E-01 -4.005594409786E-01 5.000000000000E-01
H23 H -4.099143433458E-01 -3.305559319128E-01 5.000000000000E-01
H24 H -4.755078768540E-01 -3.094800715654E-01 2.771368223408E-01
O25 O -3.934005730056E-01 -4.986601535795E-01 0.000000000000E+00
O26 O -3.571842833307E-01 4.750064393415E-01 0.000000000000E+00
O27 O -3.547413997804E-01 -4.869689127527E-01 1.602900116564E-01
O28 O -3.229795536187E-01 -4.589908422793E-01 0.000000000000E+00
O29 O -3.206995599990E-01 4.810858783535E-01 2.013568196413E-01
O30 O -3.973788312182E-01 -4.712158893174E-01 5.000000000000E-01
O31 O -3.555730365055E-01 -4.872077333955E-01 5.000000000000E-01
O32 O -3.631053005300E-01 -4.498456432792E-01 -3.397118877184E-01
O33 O -3.396677952702E-01 -4.146255839950E-01 5.000000000000E-01
O34 O -3.219314732534E-01 -4.718437714522E-01 -2.987127617299E-01
O35 O -4.083667980260E-01 -4.456460551069E-01 0.000000000000E+00
O36 O -3.638397396207E-01 -4.502791540868E-01 0.000000000000E+00
O37 O -3.807891514287E-01 -4.161435705856E-01 1.603068793000E-01
O38 O -3.672379526150E-01 -3.760662544608E-01 0.000000000000E+00
O39 O -3.353291482307E-01 -4.267296299127E-01 2.013288429298E-01
O40 O -4.256081206009E-01 -4.237587930993E-01 5.000000000000E-01
O41 O -3.813975704666E-01 -4.167536119672E-01 5.000000000000E-01
O42 O -4.065757665967E-01 -3.881406163996E-01 -3.396900158343E-01
O43 O -4.038324013314E-01 -3.459225079743E-01 5.000000000000E-01
O44 O -3.599322826458E-01 -3.866318040179E-01 -2.987231796248E-01
O45 O -4.479182841918E-01 -4.070524621267E-01 0.000000000000E+00
O46 O -4.070057319274E-01 -3.888897781151E-01 0.000000000000E+00
O47 O -4.387108176212E-01 -3.677318911428E-01 1.603089214212E-01
O48 O -4.469669414742E-01 -3.262167365592E-01 0.000000000000E+00
O49 O -3.940355992936E-01 -3.542484344261E-01 2.013091680679E-01
O50 O -4.737993178143E-01 -3.966848113468E-01 5.000000000000E-01
O51 O -4.389374360579E-01 -3.685761826878E-01 5.000000000000E-01
O52 O -4.750120083918E-01 -3.563167061211E-01 -3.396905970464E-01
O53 O -4.937694476409E-01 -3.183779448257E-01 5.000000000000E-01
O54 O -4.353361493278E-01 -3.317484229918E-01 -2.986432933406E-01
Si55 Si -3.657376330405E-01 -4.986750675274E-01 0.000000000000E+00
Si56 Si -3.706652469726E-01 -4.640132294153E-01 5.000000000000E-01
Si57 Si -3.844239574412E-01 -4.317818402004E-01 0.000000000000E+00
Si58 Si -4.060564096316E-01 -4.041865818028E-01 5.000000000000E-01
Si59 Si -4.340720776347E-01 -3.831037855219E-01 0.000000000000E+00
Si60 Si -4.665796955764E-01 -3.699815597853E-01 5.000000000000E-01


