data_DUT-49;
_audit_creation_method         'generated by CrystalMaker X for macOS'
_cell_length_a                  46.436000(40)
_cell_length_b                  46.436000(40)
_cell_length_c                  46.436000(40)
_cell_angle_alpha               90.000000(0)
_cell_angle_beta                90.000000(0)
_cell_angle_gamma               90.000000(0)

_symmetry_space_group_name_H-M     'F m -3 m'

loop_
_symmetry_equiv_pos_as_xyz
'+x,+y,+z'
'+z,+x,+y'
'+y,+z,+x'
'+x,+y,-z'
'+z,+x,-y'
'+y,+z,-x'
'-x,+y,+z'
'-z,+x,+y'
'-y,+z,+x'
'-x,+y,-z'
'-z,+x,-y'
'-y,+z,-x'
'+y,+x,+z'
'+x,+z,+y'
'+z,+y,+x'
'+y,+x,-z'
'+x,+z,-y'
'+z,+y,-x'
'+y,-x,+z'
'+x,-z,+y'
'+z,-y,+x'
'+y,-x,-z'
'+x,-z,-y'
'+z,-y,-x'
'-x,-y,-z'
'-z,-x,-y'
'-y,-z,-x'
'-x,-y,+z'
'-z,-x,+y'
'-y,-z,+x'
'+x,-y,-z'
'+z,-x,-y'
'+y,-z,-x'
'+x,-y,+z'
'+z,-x,+y'
'+y,-z,+x'
'-y,-x,-z'
'-x,-z,-y'
'-z,-y,-x'
'-y,-x,+z'
'-x,-z,+y'
'-z,-y,+x'
'-y,+x,-z'
'-x,+z,-y'
'-z,+y,-x'
'-y,+x,+z'
'-x,+z,+y'
'-z,+y,+x'
'+x,1/2+y,1/2+z'
'1/2+x,1/2+y,+z'
'1/2+x,+y,1/2+z'
'+z,1/2+x,1/2+y'
'1/2+z,1/2+x,+y'
'1/2+z,+x,1/2+y'
'+y,1/2+z,1/2+x'
'1/2+y,1/2+z,+x'
'1/2+y,+z,1/2+x'
'+x,1/2+y,1/2-z'
'1/2+x,1/2+y,-z'
'1/2+x,+y,1/2-z'
'+z,1/2+x,1/2-y'
'1/2+z,1/2+x,-y'
'1/2+z,+x,1/2-y'
'+y,1/2+z,1/2-x'
'1/2+y,1/2+z,-x'
'1/2+y,+z,1/2-x'
'-x,1/2+y,1/2+z'
'1/2-x,1/2+y,+z'
'1/2-x,+y,1/2+z'
'-z,1/2+x,1/2+y'
'1/2-z,1/2+x,+y'
'1/2-z,+x,1/2+y'
'-y,1/2+z,1/2+x'
'1/2-y,1/2+z,+x'
'1/2-y,+z,1/2+x'
'-x,1/2+y,1/2-z'
'1/2-x,1/2+y,-z'
'1/2-x,+y,1/2-z'
'-z,1/2+x,1/2-y'
'1/2-z,1/2+x,-y'
'1/2-z,+x,1/2-y'
'-y,1/2+z,1/2-x'
'1/2-y,1/2+z,-x'
'1/2-y,+z,1/2-x'
'+y,1/2+x,1/2+z'
'1/2+y,1/2+x,+z'
'1/2+y,+x,1/2+z'
'+x,1/2+z,1/2+y'
'1/2+x,1/2+z,+y'
'1/2+x,+z,1/2+y'
'+z,1/2+y,1/2+x'
'1/2+z,1/2+y,+x'
'1/2+z,+y,1/2+x'
'+y,1/2+x,1/2-z'
'1/2+y,1/2+x,-z'
'1/2+y,+x,1/2-z'
'+x,1/2+z,1/2-y'
'1/2+x,1/2+z,-y'
'1/2+x,+z,1/2-y'
'+z,1/2+y,1/2-x'
'1/2+z,1/2+y,-x'
'1/2+z,+y,1/2-x'
'+y,1/2-x,1/2+z'
'1/2+y,1/2-x,+z'
'1/2+y,-x,1/2+z'
'+x,1/2-z,1/2+y'
'1/2+x,1/2-z,+y'
'1/2+x,-z,1/2+y'
'+z,1/2-y,1/2+x'
'1/2+z,1/2-y,+x'
'1/2+z,-y,1/2+x'
'+y,1/2-x,1/2-z'
'1/2+y,1/2-x,-z'
'1/2+y,-x,1/2-z'
'+x,1/2-z,1/2-y'
'1/2+x,1/2-z,-y'
'1/2+x,-z,1/2-y'
'+z,1/2-y,1/2-x'
'1/2+z,1/2-y,-x'
'1/2+z,-y,1/2-x'
'-x,1/2-y,1/2-z'
'1/2-x,1/2-y,-z'
'1/2-x,-y,1/2-z'
'-z,1/2-x,1/2-y'
'1/2-z,1/2-x,-y'
'1/2-z,-x,1/2-y'
'-y,1/2-z,1/2-x'
'1/2-y,1/2-z,-x'
'1/2-y,-z,1/2-x'
'-x,1/2-y,1/2+z'
'1/2-x,1/2-y,+z'
'1/2-x,-y,1/2+z'
'-z,1/2-x,1/2+y'
'1/2-z,1/2-x,+y'
'1/2-z,-x,1/2+y'
'-y,1/2-z,1/2+x'
'1/2-y,1/2-z,+x'
'1/2-y,-z,1/2+x'
'+x,1/2-y,1/2-z'
'1/2+x,1/2-y,-z'
'1/2+x,-y,1/2-z'
'+z,1/2-x,1/2-y'
'1/2+z,1/2-x,-y'
'1/2+z,-x,1/2-y'
'+y,1/2-z,1/2-x'
'1/2+y,1/2-z,-x'
'1/2+y,-z,1/2-x'
'+x,1/2-y,1/2+z'
'1/2+x,1/2-y,+z'
'1/2+x,-y,1/2+z'
'+z,1/2-x,1/2+y'
'1/2+z,1/2-x,+y'
'1/2+z,-x,1/2+y'
'+y,1/2-z,1/2+x'
'1/2+y,1/2-z,+x'
'1/2+y,-z,1/2+x'
'-y,1/2-x,1/2-z'
'1/2-y,1/2-x,-z'
'1/2-y,-x,1/2-z'
'-x,1/2-z,1/2-y'
'1/2-x,1/2-z,-y'
'1/2-x,-z,1/2-y'
'-z,1/2-y,1/2-x'
'1/2-z,1/2-y,-x'
'1/2-z,-y,1/2-x'
'-y,1/2-x,1/2+z'
'1/2-y,1/2-x,+z'
'1/2-y,-x,1/2+z'
'-x,1/2-z,1/2+y'
'1/2-x,1/2-z,+y'
'1/2-x,-z,1/2+y'
'-z,1/2-y,1/2+x'
'1/2-z,1/2-y,+x'
'1/2-z,-y,1/2+x'
'-y,1/2+x,1/2-z'
'1/2-y,1/2+x,-z'
'1/2-y,+x,1/2-z'
'-x,1/2+z,1/2-y'
'1/2-x,1/2+z,-y'
'1/2-x,+z,1/2-y'
'-z,1/2+y,1/2-x'
'1/2-z,1/2+y,-x'
'1/2-z,+y,1/2-x'
'-y,1/2+x,1/2+z'
'1/2-y,1/2+x,+z'
'1/2-y,+x,1/2+z'
'-x,1/2+z,1/2+y'
'1/2-x,1/2+z,+y'
'1/2-x,+z,1/2+y'
'-z,1/2+y,1/2+x'
'1/2-z,1/2+y,+x'
'1/2-z,+y,1/2+x'

loop_
_atom_site_label
_atom_site_type_symbol
_atom_site_occupancy
_atom_site_fract_x
_atom_site_fract_y
_atom_site_fract_z
_atom_site_U_iso_or_equiv
 AD1  C 0.324  0.02182000(0)  0.02182000(0)  0.41981000(0)  0.01408
 AD2  D 0.162  0.04143000(0)  0.03034000(0)  0.41730000(0)  0.01900
 AD3  D 0.162  0.01723000(0)  0.02044000(0)  0.44079000(0)  0.01900
 AD4  D 0.162  0.02136000(0)  0.00216000(0)  0.41106000(0)  0.01900
 AD5  D 0.162  0.00726000(0)  0.03434000(0)  0.41009000(0)  0.01900
 BD1  C 0.2803  0.08702000(0)  0.08702000(0)  0.43858000(0)  0.01408
 BD2  D 0.1402  0.08755000(0)  0.08440000(0)  0.45993000(0)  0.01900
 BD3  D 0.1402  0.08286000(0)  0.10763000(0)  0.43398000(0)  0.01900
 BD4  D 0.1402  0.07161000(0)  0.07455000(0)  0.43020000(0)  0.01900
 BD5  D 0.1402  0.10606000(0)  0.08150000(0)  0.43020000(0)  0.01900
 CA  C 1.0  0.00000000(0)  0.05550000(0)  0.32360000(0)  0.01408
 CB  C 1.0  0.00000000(0)  0.08810000(0)  0.32440000(0)  0.01408
 CC  C 1.0  0.00000000(0)  0.10400000(0)  0.34990000(0)  0.01408
 CD  C 1.0  0.00000000(0)  0.13410000(0)  0.34850000(0)  0.01408
 CD1  C 0.386  0.07616000(0)  0.16468000(0)  0.39687000(0)  0.01408
 CD2  D 0.386  0.06446000(0)  0.18263000(0)  0.39886000(0)  0.01900
 CD3  D 0.386  0.07440000(0)  0.15716000(0)  0.37678000(0)  0.01900
 CD4  D 0.386  0.06898000(0)  0.14986000(0)  0.41073000(0)  0.01900
 CD5  D 0.386  0.09680000(0)  0.16906000(0)  0.40111000(0)  0.01900
 CE  C 1.0  0.00000000(0)  0.14640000(0)  0.32100000(0)  0.01408
 CF  C 1.0  0.00000000(0)  0.13100000(0)  0.29500000(0)  0.01408
 CG  C 1.0  0.00000000(0)  0.10110000(0)  0.29720000(0)  0.01408
 CH  C 1.0  0.00000000(0)  0.19870000(0)  0.30130000(0)  0.01408
 CI  C 0.5  0.02410000(0)  0.21690000(0)  0.29970000(0)  0.01408
 CJ  C 0.5  0.02410000(0)  0.23820000(0)  0.27850000(0)  0.01408
 CK  C 1.0  0.00000000(0)  0.23980000(0)  0.26020000(0)  0.01408
 CuA  Cu 1.0  0.00000000(0)  0.00000000(0)  0.35040000(0)  0.01299
 CuB  Cu 1.0  0.00000000(0)  0.00000000(0)  0.29560000(0)  0.01299
 DD1  C 0.1384  0.00374000(0)  0.00374000(0)  0.22505000(0)  0.01408
 DD2  D 0.0692  -0.00510000(0)  -0.01380000(0)  0.21635000(0)  0.01900
 DD3  D 0.0692  -0.00510000(0)  0.02131000(0)  0.21635000(0)  0.01900
 DD4  D 0.0692  0.02491000(0)  0.00374000(0)  0.22119000(0)  0.01900
 DD5  D 0.1384  0.00032000(0)  0.00374000(0)  0.24630000(0)  0.01900
 HC  H 1.0  0.00000000(0)  0.09437000(0)  0.36818000(0)  0.04711
 HF  H 1.0  0.00000000(0)  0.14059000(0)  0.27663000(0)  0.04711
 HG  H 1.0  0.00000000(0)  0.08949000(0)  0.28016000(0)  0.04711
 HI  H 0.5  0.03991000(0)  0.21474000(0)  0.31282000(0)  0.04711
 HJ  H 0.5  0.04005000(0)  0.25122000(0)  0.27643000(0)  0.04711
 NA  N 1.0  0.00000000(0)  0.17690000(0)  0.32310000(0)  0.01316
 OA  O 1.0  0.00000000(0)  0.04041000(0)  0.34750000(0)  0.01316
 OB  O 1.0  0.00000000(0)  0.04240000(0)  0.29930000(0)  0.01316
 Hf_oct  Hf 1.0  0.00000000(0)  0.00000000(0)  0.00000000(0)  .
 Ta_tet Ta 1.0  0.25000000(0)  0.25000000(0)  0.25000000(0)  .
 W_cub W 1.0  0.50000000(0)  0.00000000(0)  0.00000000(0)  .
