data_dut49
_audit_creation_method         'generated by CrystalMaker X for macOS'
_cell_length_a                  46.473000(50)
_cell_length_b                  46.473000(50)
_cell_length_c                  46.473000(50)
_cell_angle_alpha               90.000000(0)
_cell_angle_beta                90.000000(0)
_cell_angle_gamma               90.000000(0)

_symmetry_space_group_name_H-M     'F m -3 m'

loop_
_symmetry_equiv_pos_as_xyz
'+x,+y,+z'
'+z,+x,+y'
'+y,+z,+x'
'+x,+y,-z'
'+z,+x,-y'
'+y,+z,-x'
'-x,+y,+z'
'-z,+x,+y'
'-y,+z,+x'
'-x,+y,-z'
'-z,+x,-y'
'-y,+z,-x'
'+y,+x,+z'
'+x,+z,+y'
'+z,+y,+x'
'+y,+x,-z'
'+x,+z,-y'
'+z,+y,-x'
'+y,-x,+z'
'+x,-z,+y'
'+z,-y,+x'
'+y,-x,-z'
'+x,-z,-y'
'+z,-y,-x'
'-x,-y,-z'
'-z,-x,-y'
'-y,-z,-x'
'-x,-y,+z'
'-z,-x,+y'
'-y,-z,+x'
'+x,-y,-z'
'+z,-x,-y'
'+y,-z,-x'
'+x,-y,+z'
'+z,-x,+y'
'+y,-z,+x'
'-y,-x,-z'
'-x,-z,-y'
'-z,-y,-x'
'-y,-x,+z'
'-x,-z,+y'
'-z,-y,+x'
'-y,+x,-z'
'-x,+z,-y'
'-z,+y,-x'
'-y,+x,+z'
'-x,+z,+y'
'-z,+y,+x'
'+x,1/2+y,1/2+z'
'1/2+x,1/2+y,+z'
'1/2+x,+y,1/2+z'
'+z,1/2+x,1/2+y'
'1/2+z,1/2+x,+y'
'1/2+z,+x,1/2+y'
'+y,1/2+z,1/2+x'
'1/2+y,1/2+z,+x'
'1/2+y,+z,1/2+x'
'+x,1/2+y,1/2-z'
'1/2+x,1/2+y,-z'
'1/2+x,+y,1/2-z'
'+z,1/2+x,1/2-y'
'1/2+z,1/2+x,-y'
'1/2+z,+x,1/2-y'
'+y,1/2+z,1/2-x'
'1/2+y,1/2+z,-x'
'1/2+y,+z,1/2-x'
'-x,1/2+y,1/2+z'
'1/2-x,1/2+y,+z'
'1/2-x,+y,1/2+z'
'-z,1/2+x,1/2+y'
'1/2-z,1/2+x,+y'
'1/2-z,+x,1/2+y'
'-y,1/2+z,1/2+x'
'1/2-y,1/2+z,+x'
'1/2-y,+z,1/2+x'
'-x,1/2+y,1/2-z'
'1/2-x,1/2+y,-z'
'1/2-x,+y,1/2-z'
'-z,1/2+x,1/2-y'
'1/2-z,1/2+x,-y'
'1/2-z,+x,1/2-y'
'-y,1/2+z,1/2-x'
'1/2-y,1/2+z,-x'
'1/2-y,+z,1/2-x'
'+y,1/2+x,1/2+z'
'1/2+y,1/2+x,+z'
'1/2+y,+x,1/2+z'
'+x,1/2+z,1/2+y'
'1/2+x,1/2+z,+y'
'1/2+x,+z,1/2+y'
'+z,1/2+y,1/2+x'
'1/2+z,1/2+y,+x'
'1/2+z,+y,1/2+x'
'+y,1/2+x,1/2-z'
'1/2+y,1/2+x,-z'
'1/2+y,+x,1/2-z'
'+x,1/2+z,1/2-y'
'1/2+x,1/2+z,-y'
'1/2+x,+z,1/2-y'
'+z,1/2+y,1/2-x'
'1/2+z,1/2+y,-x'
'1/2+z,+y,1/2-x'
'+y,1/2-x,1/2+z'
'1/2+y,1/2-x,+z'
'1/2+y,-x,1/2+z'
'+x,1/2-z,1/2+y'
'1/2+x,1/2-z,+y'
'1/2+x,-z,1/2+y'
'+z,1/2-y,1/2+x'
'1/2+z,1/2-y,+x'
'1/2+z,-y,1/2+x'
'+y,1/2-x,1/2-z'
'1/2+y,1/2-x,-z'
'1/2+y,-x,1/2-z'
'+x,1/2-z,1/2-y'
'1/2+x,1/2-z,-y'
'1/2+x,-z,1/2-y'
'+z,1/2-y,1/2-x'
'1/2+z,1/2-y,-x'
'1/2+z,-y,1/2-x'
'-x,1/2-y,1/2-z'
'1/2-x,1/2-y,-z'
'1/2-x,-y,1/2-z'
'-z,1/2-x,1/2-y'
'1/2-z,1/2-x,-y'
'1/2-z,-x,1/2-y'
'-y,1/2-z,1/2-x'
'1/2-y,1/2-z,-x'
'1/2-y,-z,1/2-x'
'-x,1/2-y,1/2+z'
'1/2-x,1/2-y,+z'
'1/2-x,-y,1/2+z'
'-z,1/2-x,1/2+y'
'1/2-z,1/2-x,+y'
'1/2-z,-x,1/2+y'
'-y,1/2-z,1/2+x'
'1/2-y,1/2-z,+x'
'1/2-y,-z,1/2+x'
'+x,1/2-y,1/2-z'
'1/2+x,1/2-y,-z'
'1/2+x,-y,1/2-z'
'+z,1/2-x,1/2-y'
'1/2+z,1/2-x,-y'
'1/2+z,-x,1/2-y'
'+y,1/2-z,1/2-x'
'1/2+y,1/2-z,-x'
'1/2+y,-z,1/2-x'
'+x,1/2-y,1/2+z'
'1/2+x,1/2-y,+z'
'1/2+x,-y,1/2+z'
'+z,1/2-x,1/2+y'
'1/2+z,1/2-x,+y'
'1/2+z,-x,1/2+y'
'+y,1/2-z,1/2+x'
'1/2+y,1/2-z,+x'
'1/2+y,-z,1/2+x'
'-y,1/2-x,1/2-z'
'1/2-y,1/2-x,-z'
'1/2-y,-x,1/2-z'
'-x,1/2-z,1/2-y'
'1/2-x,1/2-z,-y'
'1/2-x,-z,1/2-y'
'-z,1/2-y,1/2-x'
'1/2-z,1/2-y,-x'
'1/2-z,-y,1/2-x'
'-y,1/2-x,1/2+z'
'1/2-y,1/2-x,+z'
'1/2-y,-x,1/2+z'
'-x,1/2-z,1/2+y'
'1/2-x,1/2-z,+y'
'1/2-x,-z,1/2+y'
'-z,1/2-y,1/2+x'
'1/2-z,1/2-y,+x'
'1/2-z,-y,1/2+x'
'-y,1/2+x,1/2-z'
'1/2-y,1/2+x,-z'
'1/2-y,+x,1/2-z'
'-x,1/2+z,1/2-y'
'1/2-x,1/2+z,-y'
'1/2-x,+z,1/2-y'
'-z,1/2+y,1/2-x'
'1/2-z,1/2+y,-x'
'1/2-z,+y,1/2-x'
'-y,1/2+x,1/2+z'
'1/2-y,1/2+x,+z'
'1/2-y,+x,1/2+z'
'-x,1/2+z,1/2+y'
'1/2-x,1/2+z,+y'
'1/2-x,+z,1/2+y'
'-z,1/2+y,1/2+x'
'1/2-z,1/2+y,+x'
'1/2-z,+y,1/2+x'

loop_
_atom_site_label
_atom_site_type_symbol
_atom_site_occupancy
_atom_site_fract_x
_atom_site_fract_y
_atom_site_fract_z
_atom_site_U_iso_or_equiv
 AD1  C 0.652  0.04097000(0)  0.04097000(0)  0.41978000(0)  0.01408
 AD2  D 0.326  0.04655000(0)  0.05198000(0)  0.40217000(0)  0.01900
 AD3  D 0.326  0.01953000(0)  0.04009000(0)  0.42119000(0)  0.01900
 AD4  D 0.326  0.04890000(0)  0.05079000(0)  0.43719000(0)  0.01900
 AD5  D 0.326  0.04890000(0)  0.02102000(0)  0.41857000(0)  0.01900
 BD1  C 0.81  0.12171000(0)  0.12171000(0)  0.43375000(0)  0.01408
 BD2  D 0.403  0.13573000(0)  0.11471000(0)  0.44848000(0)  0.01900
 BD3  D 0.403  0.10461000(0)  0.13025000(0)  0.44361000(0)  0.01900
 BD4  D 0.403  0.11541000(0)  0.10523000(0)  0.42145000(0)  0.01900
 BD5  D 0.403  0.13109000(0)  0.13665000(0)  0.42145000(0)  0.01900
 CA  C 1.0  0.00000000(0)  0.05550000(0)  0.32360000(0)  0.01408
 CB  C 1.0  0.00000000(0)  0.08810000(0)  0.32440000(0)  0.01408
 CC  C 1.0  0.00000000(0)  0.10400000(0)  0.34990000(0)  0.01408
 CD  C 1.0  0.00000000(0)  0.13410000(0)  0.34850000(0)  0.01408
 CD1  C 0.397  0.08444000(0)  0.19053000(0)  0.36756000(0)  0.01408
 CD2  D 0.397  0.09779000(0)  0.20187000(0)  0.38003000(0)  0.01900
 CD3  D 0.397  0.06824000(0)  0.20311000(0)  0.36111000(0)  0.01900
 CD4  D 0.397  0.07660000(0)  0.17390000(0)  0.37872000(0)  0.01900
 CD5  D 0.397  0.09513000(0)  0.18323000(0)  0.35039000(0)  0.01900
 CE  C 1.0  0.00000000(0)  0.14640000(0)  0.32100000(0)  0.01408
 CF  C 1.0  0.00000000(0)  0.13100000(0)  0.29500000(0)  0.01408
 CG  C 1.0  0.00000000(0)  0.10110000(0)  0.29720000(0)  0.01408
 CH  C 1.0  0.00000000(0)  0.19870000(0)  0.30130000(0)  0.01408
 CI  C 0.5  0.02410000(0)  0.21690000(0)  0.29970000(0)  0.01408
 CJ  C 0.5  0.02410000(0)  0.23820000(0)  0.27850000(0)  0.01408
 CK  C 1.0  0.00000000(0)  0.23980000(0)  0.26020000(0)  0.01408
 CuA  Cu 1.0  0.00000000(0)  0.00000000(0)  0.35040000(0)  0.01299
 CuB  Cu 1.0  0.00000000(0)  0.00000000(0)  0.29560000(0)  0.01299
 DD1  C 0.99  0.06153000(0)  0.06153000(0)  0.27431000(0)  0.01408
 DD2  D 0.493  0.05155000(0)  0.04397000(0)  0.28170000(0)  0.01900
 DD3  D 0.493  0.05155000(0)  0.07909000(0)  0.28170000(0)  0.01900
 DD4  D 0.99  0.06105000(0)  0.06153000(0)  0.25281000(0)  0.01900
 DD5  D 0.493  0.08196000(0)  0.06153000(0)  0.28102000(0)  0.01900
 HC  H 1.0  0.00000000(0)  0.09437000(0)  0.36818000(0)  0.04711
 HF  H 1.0  0.00000000(0)  0.14059000(0)  0.27663000(0)  0.04711
 HG  H 1.0  0.00000000(0)  0.08949000(0)  0.28016000(0)  0.04711
 HI  H 0.5  0.03991000(0)  0.21474000(0)  0.31282000(0)  0.04711
 HJ  H 0.5  0.04005000(0)  0.25122000(0)  0.27643000(0)  0.04711
 NA  N 1.0  0.00000000(0)  0.17690000(0)  0.32310000(0)  0.01316
 OA  O 1.0  0.00000000(0)  0.04041000(0)  0.34750000(0)  0.01316
 OB  O 1.0  0.00000000(0)  0.04240000(0)  0.29930000(0)  0.01316
 Hf_oct  Hf 1.0  0.00000000(0)  0.00000000(0)  0.00000000(0)  .
 Ta_tet Ta 1.0  0.25000000(0)  0.25000000(0)  0.25000000(0)  .
 W_cub W 1.0  0.50000000(0)  0.00000000(0)  0.00000000(0)  .
