data_model_0
_audit_creation_method         'generated by Chemfiles'
_symmetry_cell_setting         'triclinic'
_symmetry_space_group_name_H-M 'P 1'
_space_group_IT_number         1
_cell_length_a 28.377
_cell_length_b 18.918
_cell_length_c 18.918
_cell_angle_alpha 94.07
_cell_angle_beta  94.07
_cell_angle_gamma 94.07
loop_
  _symmetry_equiv_pos_as_xyz 'x,y,z'

loop_
_atom_site_label
_atom_site_type_symbol
_atom_site_fract_x
_atom_site_fract_y
_atom_site_fract_z
_atom_site_charge
Si1		Si4+	 0.0344510  0.1665693  0.4371479 	   0
O2		O2-		 0.0888206  0.3667670  0.0000000       0
O3		O2-		 0.0502152  0.4247114  0.2500114       0
O4		O2-		 0.0834326  0.1251542  0.4465021       0
O5		O2-		 0.0068030  0.0101838  0.1596587       0
Si6		Si4+	 0.2914345  0.0516755  0.1665680       0
O7		O2-		 0.0000119  0.1332617  0.3667259       0
O8		O2-		 0.1666629  0.0753185  0.4247111       0
O9		O2-		 0.2976737  0.1251408  0.1251652       0
O10		O2-		 0.1064388  0.0102124  0.0102045       0
Si11	Si4+	 0.1110178  0.4371674  0.0516605       0
O12		O2-		 0.2444907  0.0000048  0.1332438       0
O13		O2-		 0.2831448  0.2500000  0.0753117       0
O14		O2-		 0.0834327  0.4464925  0.1251652       0
O15		O2-		 0.0068038  0.1596537  0.0102045       0
Si16	Si4+	 0.2223081  0.4483579  0.0628749       0
O17		O2-		 0.2498908  0.3748304  0.0535207       0
O18		O2-		 0.3265204  0.4898008  0.3403642       0
Sin19	Si4+	 0.0418914  0.3334542  0.4483623       0
O20		O2-		 0.0356497  0.3748438  0.3748577       0
O21		O2-		 0.2268871  0.4898252  0.4898183       0
Si22	Si4+	 0.2989076  0.0628354  0.3334549       0
O23		O2-		 0.2498907  0.0534921  0.3748577       0
O24		O2-		 0.3265197  0.3403309  0.4898183       0
Si25	Si4+	 0.2989101  0.3334683  0.0628749       0
O26		O2-		 0.2444896  0.1332253  0.0000000       0
O27		O2-		 0.2831460  0.0753262  0.2500114       0
Si28	Si4+	 0.0418914  0.4483621  0.3334549       0
O29		O2-		 0.0000132  0.3667718  0.1332438       0
O30		O2-		 0.1666630  0.4247191  0.0753117       0
Si31	Si4+	 0.2223081  0.0628702  0.4483623       0
O32		O2-		 0.0888178 -0.0000165  0.3667259       0
O33		O2-		 0.0502139  0.2499846  0.4247111       0
Si34	Si4+	 0.1110153  0.0516267  0.4371479       0
Si35	Si4+	 0.2914320  0.1665303  0.0516605       0
Si36	Si4+	 0.0344510  0.4371492  0.1665680       0
Si37	Si4+	 0.0344290  0.1665616  0.9371708       0
On38	O2-		 0.0888338  0.3667593  0.5000228       0
O39		O2-		 0.0501904  0.4246996  0.7499811       0
O40		O2-		 0.0834458  0.1251465  0.9465249       0
O41		O2-		 0.0068135  0.0101720  0.6596283       0
Si42	Si4+	 0.2914450  0.0516637  0.6665377       0
O43		O2-		-0.0000101  0.1332540  0.8667488       0
O44		O2-		 0.1666734  0.0753067  0.9246808       0
O45		O2-		 0.2976490  0.1251290  0.6251348       0
O46		O2-		 0.1064493  0.0102006  0.5101742       0
Hn47	H		 0.1090082  0.3296688  0.5100035       0
Hn48	H		 0.0958726  0.4011102  0.6171119       0
Hn49	H		 0.1490058  0.4659602  0.5776939       0
Hn50	H		 0.0747547  0.5112802  0.5243578       0
O51		O2-		 0.2445039 -0.0000029  0.6332666       0
O52		O2-		 0.2831200  0.2499882  0.5752814       0
On53	O2-		 0.0834432  0.4464807  0.6251348       0
O54		O2-		 0.0068142  0.1596419  0.5101742       0
Sin55	Si4+	 0.2222833  0.4483461  0.5628446       0
O56		O2-		 0.2499038  0.3748716  0.5534904       0
O57		O2-		 0.3265309  0.4897890  0.8403339       0
Si58	Si4+	 0.0419019  0.3334425  0.9483320       0
O59		O2-		 0.0356602  0.3748320  0.8748274       0
O60		O2-		 0.2268976  0.4898134  0.9897880       0
Si61	Si4+	 0.2988829  0.0628237  0.8334245       0
O62		O2-		 0.2499012  0.0534803  0.8748274       0
O63		O2-		 0.3265327  0.3403721  0.9897880       0
Si64	Si4+	 0.2988854  0.3334565  0.5628446       0
O65		O2-		 0.2445054  0.1332706  0.5000228       0
O66		O2-		 0.2831212  0.0753144  0.7499811       0
Si67	Si4+	 0.0419019  0.4483503  0.8334245       0
O68		O2-		-0.0000088  0.3667641  0.6332666       0
On69	O2-		 0.1666735  0.4247073  0.5752814       0
Si70	Si4+	 0.2222833  0.0628584  0.9483320       0
O71		O2-		 0.0888310 -0.0000243  0.8667488       0
O72		O2-		 0.0501891  0.2499728  0.9246808       0
Si73	Si4+	 0.1110310  0.0516720  0.9371708       0
Si74	Si4+	 0.2914450  0.1665716  0.5516302       0
Sin75	Si4+	 0.0344263  0.4371374  0.6665377       0
Si76	Si4+	 0.0344279  0.6665616  0.4371479       0
O77		O2-		 0.0888327  0.8667593  0.0000000       0
O78		O2-		 0.0501921  0.9247037  0.2500114       0
O79		O2-		 0.0834447  0.6251465  0.4465021       0
O80		O2-		 0.0068151  0.5101761  0.1596587       0
Si81	Si4+	 0.2914466  0.5516678  0.1665680       0
O82		O2-		-0.0000112  0.6332541  0.3667259       0
O83		O2-		 0.1666750  0.5753108  0.4247111       0
O84		O2-		 0.2976506  0.6251331  0.1251652       0
O85		O2-		 0.1064509  0.5102047  0.0102045       0
Si86	Si4+	 0.1110300  0.9371597  0.0516605       0
O87		O2-		 0.2445029  0.4999971  0.1332438       0
O88		O2-		 0.2831216  0.7499923  0.0753117       0
O89		O2-		 0.0834448  0.9464848  0.1251652       0
O90		O2-		 0.0068159  0.6596460  0.0102045       0
Si91	Si4+	 0.2222850  0.9483502  0.0628749       0
O92		O2-		 0.2499054  0.8748757  0.0535207       0
O93		O2-		 0.3265325  0.9897931  0.3403642       0
Si94	Si4+	 0.0419035  0.8334466  0.4483623       0
O95		O2-		 0.0356618  0.8748361  0.3748577       0
O96		O2-		 0.2268992  0.9898175  0.4898183       0
Si97	Si4+	 0.2988845  0.5628277  0.3334549       0
O98		O2-		 0.2499028  0.5534844  0.3748577       0
O99		O2-		 0.3265343  0.8403762  0.4898183       0
Si100	Si4+	 0.2988870  0.8334606  0.0628749       0
O101	O2-		 0.2445043  0.6332706  0.0000000       0
O102	O2-		 0.2831229  0.5753185  0.2500114       0
Si103	Si4+	 0.0419035  0.9483544  0.3334549       0
O104	O2-		-0.0000099  0.8667641  0.1332438       0
O105	O2-		 0.1666751  0.9247114  0.0753117       0
Si106	Si4+	 0.2222849  0.5628625  0.4483623       0
O107	O2-		 0.0888300  0.4999758  0.3667259       0
O108	O2-		 0.0501908  0.7499769  0.4247111       0
Sin109	Si4+	 0.1110299  0.5516720  0.4371479       0
Si110	Si4+	 0.2914467  0.6665756  0.0516605       0
Si111	Si4+	 0.0344279  0.9371415  0.1665680       0
Si112	Si4+	 0.0344411  0.6665539  0.9371708       0
O113	O2-		 0.0888459  0.8667516  0.5000228       0
O114	O2-		 0.0502025  0.9246919  0.7499811       0
O115	O2-		 0.0834227  0.6251388  0.9465249       0
O116	O2-		 0.0067929  0.5102173  0.6596283       0
Si117	Si4+	 0.2914219  0.5516560  0.6665377       0
O118	O2-		 0.0000020  0.6332463  0.8667488       0
O119	O2-		 0.1666503  0.5752990  0.9246808       0
O120	O2-		 0.2976636  0.6251743  0.6251348       0
On121	O2-		 0.1064262  0.5101930  0.5101742       0
Si122	Si4+	 0.1110405  0.9371479  0.5516302       0
O123	O2-		 0.2445161  0.4999894  0.6332666       0
O124	O2-		 0.2831321  0.7499805  0.5752814       0
O125	O2-		 0.0834201  0.9464731  0.6251348       0
O126	O2-		 0.0067911  0.6596342  0.5101742       0
Si127	Si4+	 0.2222955  0.9483384  0.5628446       0
O128	O2-		 0.2499159  0.8748639  0.5534904       0
O129	O2-		 0.3265430  0.9897814  0.8403339       0
Si130	Si4+	 0.0419140  0.8334348  0.9483320       0
O131	O2-		 0.0356723  0.8748243  0.8748274       0
O132	O2-		 0.2269097  0.9898057  0.9897880       0
Si133	Si4+	 0.2988975  0.5628690  0.8334245       0
O134	O2-		 0.2499133  0.5534726  0.8748274       0
O135	O2-		 0.3265448  0.8403644  0.9897880       0
Si136	Si4+	 0.2988975  0.8334488  0.5628446       0
O137	O2-		 0.2445175  0.6332629  0.5000228       0
O138	O2-		 0.2831333  0.5753067  0.7499811       0
Si139	Si4+	 0.0419140  0.9483426  0.8334245       0
O140	O2-		 0.0000033  0.8667564  0.6332666       0
O141	O2-		 0.1666504  0.9246996  0.5752814       0
Si142	Si4+	 0.2222954  0.5628507  0.9483320       0
O143	O2-		 0.0888457  0.5000210  0.8667488       0
O144	O2-		 0.0502038  0.7500181  0.9246808       0
Si145	Si4+	 0.1110431  0.5516643  0.9371708       0
Si146	Si4+	 0.2914219  0.6665639  0.5516302       0
Si147	Si4+	 0.0344384  0.9371297  0.6665377       0
Si148	Si4+	 0.3677843  0.1665693  0.4371479       0
O149	O2-		 0.4221539  0.3667670  0.0000000       0
O150	O2-		 0.3835485  0.4247114  0.2500114       0
O151	O2-		 0.4167660  0.1251542  0.4465021       0
O152	O2-		 0.3401363  0.0101838  0.1596587       0
Si153	Si4+	 0.6247679  0.0516755  0.1665680       0
O154	O2-		 0.3333452  0.1332617  0.3667259       0
O155	O2-		 0.4999963  0.0753185  0.4247111       0
O156	O2-		 0.6310071  0.1251408  0.1251652       0
O157	O2-		 0.4397721  0.0102124  0.0102045       0
Si158	Si4+	 0.4443512  0.4371674  0.0516605       0
O159	O2-		 0.5778241  0.0000048  0.1332438       0
O160	O2-		 0.6164781  0.2500000  0.0753117       0
O161	O2-		 0.4167660  0.4464925  0.1251652       0
O162	O2-		 0.3401371  0.1596537  0.0102045       0
Si163	Si4+	 0.5556414  0.4483579  0.0628749       0
O164	O2-		 0.5832241  0.3748304  0.0535207       0
O165	O2-		 0.6598537  0.4898008  0.3403642       0
Si166	Si4+	 0.3752247  0.3334542  0.4483623       0
O167	O2-		 0.3689830  0.3748438  0.3748577       0
O168	O2-		 0.5602204  0.4898252  0.4898183       0
Si169	Si4+	 0.6322410  0.0628354  0.3334549       0
O170	O2-		 0.5832240  0.0534921  0.3748577       0
O171	O2-		 0.6598530  0.3403309  0.4898183       0
Si172	Si4+	 0.6322435  0.3334683  0.0628749       0
O173	O2-		 0.5778230  0.1332253  0.0000000       0
O174	O2-		 0.6164793  0.0753262  0.2500114       0
Sin175	Si4+	 0.3752247  0.4483621  0.3334549       0
O176	O2-		 0.3333465  0.3667718  0.1332438       0
O177	O2-		 0.4999963  0.4247191  0.0753117       0
Si178	Si4+	 0.5556414  0.0628702  0.4483623       0
O179	O2-		 0.4221512 -0.0000165  0.3667259       0
O180	O2-		 0.3835472  0.2499846  0.4247111       0
Si181	Si4+	 0.4443487  0.0516267  0.4371479       0
Si182	Si4+	 0.6247654  0.1665303  0.0516605       0
Si183	Si4+	 0.3677843  0.4371492  0.1665680       0
Si184	Si4+	 0.3677623  0.1665616  0.9371708       0
O185	O2-		 0.4221671  0.3667593  0.5000228       0
O186	O2-		 0.3835238  0.4246996  0.7499811       0
O187	O2-		 0.4167792  0.1251465  0.9465249       0
O188	O2-		 0.3401468  0.0101720  0.6596283       0
Si189	Si4+	 0.6247783  0.0516637  0.6665377       0
O190	O2-		 0.3333232  0.1332540  0.8667488       0
O191	O2-		 0.5000068  0.0753067  0.9246808       0
O192	O2-		 0.6309823  0.1251290  0.6251348       0
O193	O2-		 0.4397826  0.0102006  0.5101742       0
Sin194	Si4+	 0.4443617  0.4371556  0.5516302       0
O195	O2-		 0.5778373 -0.0000029  0.6332666       0
O196	O2-		 0.6164533  0.2499882  0.5752814       0
O197	O2-		 0.4167765  0.4464807  0.6251348       0
O198	O2-		 0.3401476  0.1596419  0.5101742       0
Si199	Si4+	 0.5556167  0.4483461  0.5628446       0
O200	O2-		 0.5832371  0.3748716  0.5534904       0
O201	O2-		 0.6598642  0.4897890  0.8403339       0
Si202	Si4+	 0.3752352  0.3334425  0.9483320       0
O203	O2-		 0.3689935  0.3748320  0.8748274       0
O204	O2-		 0.5602309  0.4898134  0.9897880       0
Si205	Si4+	 0.6322162  0.0628237  0.8334245       0
O206	O2-		 0.5832345  0.0534803  0.8748274       0
O207	O2-		 0.6598660  0.3403721  0.9897880       0
Si208	Si4+	 0.6322187  0.3334565  0.5628446       0
O209	O2-		 0.5778387  0.1332706  0.5000228       0
O210	O2-		 0.6164546  0.0753144  0.7499811       0
Si211	Si4+	 0.3752352  0.4483503  0.8334245       0
O212	O2-		 0.3333245  0.3667641  0.6332666       0
O213	O2-		 0.5000068  0.4247073  0.5752814       0
Si214	Si4+	 0.5556167  0.0628584  0.9483320       0
O215	O2-		 0.4221644 -0.0000243  0.8667488       0
O216	O2-		 0.3835225  0.2499728  0.9246808       0
Si217	Si4+	 0.4443644  0.0516720  0.9371708       0
Si218	Si4+	 0.6247784  0.1665716  0.5516302       0
Si219	Si4+	 0.3677596  0.4371374  0.6665377       0
Sin220	Si4+	 0.3677612  0.6665616  0.4371479       0
O221	O2-		 0.4221660  0.8667593  0.0000000       0
O222	O2-		 0.3835254  0.9247037  0.2500114       0
On223	O2-		 0.4167781  0.6251465  0.4465021       0
O224	O2-		 0.3401485  0.5101761  0.1596587       0
Si225	Si4+	 0.6247800  0.5516678  0.1665680       0
O226	O2-		 0.3333221  0.6332541  0.3667259       0
On227	O2-		 0.5000084  0.5753108  0.4247111       0
O228	O2-		 0.6309840  0.6251331  0.1251652       0
O229	O2-		 0.4397843  0.5102047  0.0102045       0
Si230	Si4+	 0.4443633  0.9371597  0.0516605       0
O231	O2-		 0.5778362  0.4999971  0.1332438       0
O232	O2-		 0.6164550  0.7499923  0.0753117       0
O233	O2-		 0.4167781  0.9464848  0.1251652       0
O234	O2-		 0.3401492  0.6596460  0.0102045       0
Si235	Si4+	 0.5556183  0.9483502  0.0628749       0
O236	O2-		 0.5832387  0.8748757  0.0535207       0
O237	O2-		 0.6598659  0.9897931  0.3403642       0
Si238	Si4+	 0.3752368  0.8334466  0.4483623       0
O239	O2-		 0.3689951  0.8748361  0.3748577       0
O240	O2-		 0.5602326  0.9898175  0.4898183       0
Si241	Si4+	 0.6322179  0.5628277  0.3334549       0
O242	O2-		 0.5832362  0.5534844  0.3748577       0
O243	O2-		 0.6598676  0.8403762  0.4898183       0
Si244	Si4+	 0.6322204  0.8334606  0.0628749       0
O245	O2-		 0.5778376  0.6332706  0.0000000       0
O246	O2-		 0.6164562  0.5753185  0.2500114       0
Si247	Si4+	 0.3752368  0.9483544  0.3334549       0
O248	O2-		 0.3333234  0.8667641  0.1332438       0
O249	O2-		 0.5000084  0.9247114  0.0753117       0
Sin250	Si4+	 0.5556183  0.5628625  0.4483623       0
On251	O2-		 0.4221633  0.4999758  0.3667259       0
O252	O2-		 0.3835241  0.7499769  0.4247111       0
Hn253	H		 0.4436715  0.6589410  0.4483146       0
Hn254	H		 0.4815987  0.5306025  0.4201234       0
Hn255	H		 0.4486784  0.4718874  0.3731566       0
Hn256	H		 0.4070263  0.5186678  0.5021222       0
Si257	Si4+	 0.6247800  0.6665756  0.0516605       0
Si258	Si4+	 0.3677612  0.9371415  0.1665680       0
Si259	Si4+	 0.3677744  0.6665539  0.9371708       0
O260	O2-		 0.4221792  0.8667516  0.5000228       0
O261	O2-		 0.3835359  0.9246919  0.7499811       0
O262	O2-		 0.4167560  0.6251388  0.9465249       0
O263	O2-		 0.3401262  0.5102173  0.6596283       0
Si264	Si4+	 0.6247552  0.5516560  0.6665377       0
O265	O2-		 0.3333353  0.6332463  0.8667488       0
O266	O2-		 0.4999836  0.5752990  0.9246808       0
O267	O2-		 0.6309970  0.6251743  0.6251348       0
On268	O2-		 0.4397595  0.5101930  0.5101742       0
Si269	Si4+	 0.4443738  0.9371479  0.5516302       0
O270	O2-		 0.5778494  0.4999894  0.6332666       0
O271	O2-		 0.6164655  0.7499805  0.5752814       0
O272	O2-		 0.4167534  0.9464731  0.6251348       0
O273	O2-		 0.3401245  0.6596342  0.5101742       0
Si274	Si4+	 0.5556288  0.9483384  0.5628446       0
O275	O2-		 0.5832492  0.8748639  0.5534904       0
O276	O2-		 0.6598763  0.9897814  0.8403339       0
Si277	Si4+	 0.3752473  0.8334348  0.9483320       0
O278	O2-		 0.3690056  0.8748243  0.8748274       0
O279	O2-		 0.5602430  0.9898057  0.9897880       0
Si280	Si4+	 0.6322309  0.5628690  0.8334245       0
O281	O2-		 0.5832467  0.5534726  0.8748274       0
O282	O2-		 0.6598781  0.8403644  0.9897880       0
Si283	Si4+	 0.6322308  0.8334488  0.5628446       0
O284	O2-		 0.5778508  0.6332629  0.5000228       0
O285	O2-		 0.6164667  0.5753067  0.7499811       0
Si286	Si4+	 0.3752473  0.9483426  0.8334245       0
O287	O2-		 0.3333366  0.8667564  0.6332666       0
O288	O2-		 0.4999837  0.9246996  0.5752814       0
Si289	Si4+	 0.5556288  0.5628507  0.9483320       0
O290	O2-		 0.4221790  0.5000210  0.8667488       0
O291	O2-		 0.3835371  0.7500181  0.9246808       0
Si292	Si4+	 0.4443765  0.5516643  0.9371708       0
Si293	Si4+	 0.6247552  0.6665639  0.5516302       0
Si294	Si4+	 0.3677717  0.9371297  0.6665377       0
Si295	Si4+	 0.7011177  0.1665693  0.4371479       0
O296	O2-		 0.7554872  0.3667670  0.0000000       0
O297	O2-		 0.7168818  0.4247114  0.2500114       0
O298	O2-		 0.7500993  0.1251542  0.4465021       0
O299	O2-		 0.6734697  0.0101838  0.1596587       0
Si300	Si4+	 0.9581012  0.0516755  0.1665680       0
O301	O2-		 0.6666786  0.1332617  0.3667259       0
O302	O2-		 0.8333296  0.0753185  0.4247111       0
O303	O2-		 0.9643404  0.1251408  0.1251652       0
O304	O2-		 0.7731055  0.0102124  0.0102045       0
Si305	Si4+	 0.7776845  0.4371674  0.0516605       0
O306	O2-		 0.9111574  0.0000048  0.1332438       0
O307	O2-		 0.9498114  0.2500000  0.0753117       0
O308	O2-		 0.7500994  0.4464925  0.1251652       0
O309	O2-		 0.6734704  0.1596537  0.0102045       0
Si310	Si4+	 0.8889748  0.4483579  0.0628749       0
O311	O2-		 0.9165574  0.3748304  0.0535207       0
O312	O2-		 0.9931871  0.4898008  0.3403642       0
Sin313	Si4+	 0.7085580  0.3334542  0.4483623       0
O314	O2-		 0.7023163  0.3748438  0.3748577       0
O315	O2-		 0.8935538  0.4898252  0.4898183       0
Si316	Si4+	 0.9655743  0.0628354  0.3334549       0
O317	O2-		 0.9165574  0.0534921  0.3748577       0
O318	O2-		 0.9931863  0.3403309  0.4898183       0
Si319	Si4+	 0.9655768  0.3334683  0.0628749       0
O320	O2-		 0.9111563  0.1332253  0.0000000       0
O321	O2-		 0.9498126  0.0753262  0.2500114       0
Si322	Si4+	 0.7085581  0.4483621  0.3334549       0
O323	O2-		 0.6666799  0.3667718  0.1332438       0
O324	O2-		 0.8333297  0.4247191  0.0753117       0
Si325	Si4+	 0.8889747  0.0628702  0.4483623       0
O326	O2-		 0.7554845 -0.0000165  0.3667259       0
O327	O2-		 0.7168806  0.2499846  0.4247111       0
Si328	Si4+	 0.7776820  0.0516267  0.4371479       0
Si329	Si4+	 0.9580987  0.1665303  0.0516605       0
Si330	Si4+	 0.7011177  0.4371492  0.1665680       0
Si331	Si4+	 0.7010956  0.1665616  0.9371708       0
On332	O2-		 0.7555004  0.3667593  0.5000228       0
O333	O2-		 0.7168571  0.4246996  0.7499811       0
O334	O2-		 0.7501125  0.1251465  0.9465249       0
O335	O2-		 0.6734802  0.0101720  0.6596283       0
Si336	Si4+	 0.9581117  0.0516637  0.6665377       0
O337	O2-		 0.6666565  0.1332540  0.8667488       0
O338	O2-		 0.8333401  0.0753067  0.9246808       0
O339	O2-		 0.9643157  0.1251290  0.6251348       0
O340	O2-		 0.7731160  0.0102006  0.5101742       0
Hn341	H		 0.7756749  0.3296688  0.5100035       0
Hn342	H		 0.7625392  0.4011102  0.6171119       0
Hn343	H		 0.8156725  0.4659602  0.5776939       0
Hn344	H		 0.7414213  0.5112802  0.5243578       0
O345	O2-		 0.9111706 -0.0000029  0.6332666       0
O346	O2-		 0.9497867  0.2499882  0.5752814       0
On347	O2-		 0.7501099  0.4464807  0.6251348       0
O348	O2-		 0.6734809  0.1596419  0.5101742       0
Sin349	Si4+	 0.8889500  0.4483461  0.5628446       0
O350	O2-		 0.9165704  0.3748716  0.5534904       0
O351	O2-		 0.9931976  0.4897890  0.8403339       0
Si352	Si4+	 0.7085685  0.3334425  0.9483320       0
O353	O2-		 0.7023268  0.3748320  0.8748274       0
O354	O2-		 0.8935643  0.4898134  0.9897880       0
Si355	Si4+	 0.9655496  0.0628237  0.8334245       0
O356	O2-		 0.9165679  0.0534803  0.8748274       0
O357	O2-		 0.9931993  0.3403721  0.9897880       0
Si358	Si4+	 0.9655521  0.3334565  0.5628446       0
O359	O2-		 0.9111720  0.1332706  0.5000228       0
O360	O2-		 0.9497879  0.0753144  0.7499811       0
Si361	Si4+	 0.7085686  0.4483503  0.8334245       0
O362	O2-		 0.6666578  0.3667641  0.6332666       0
On363	O2-		 0.8333401  0.4247073  0.5752814       0
Si364	Si4+	 0.8889500  0.0628584  0.9483320       0
O365	O2-		 0.7554977 -0.0000243  0.8667488       0
O366	O2-		 0.7168558  0.2499728  0.9246808       0
Si367	Si4+	 0.7776977  0.0516720  0.9371708       0
Si368	Si4+	 0.9581117  0.1665716  0.5516302       0
Sin369	Si4+	 0.7010929  0.4371374  0.6665377       0
Si370	Si4+	 0.7010946  0.6665616  0.4371479       0
O371	O2-		 0.7554993  0.8667593  0.0000000       0
O372	O2-		 0.7168587  0.9247037  0.2500114       0
O373	O2-		 0.7501114  0.6251465  0.4465021       0
O374	O2-		 0.6734818  0.5101761  0.1596587       0
Si375	Si4+	 0.9581133  0.5516678  0.1665680       0
O376	O2-		 0.6666554  0.6332541  0.3667259       0
O377	O2-		 0.8333417  0.5753108  0.4247111       0
O378	O2-		 0.9643173  0.6251331  0.1251652       0
O379	O2-		 0.7731176  0.5102047  0.0102045       0
Si380	Si4+	 0.7776966  0.9371597  0.0516605       0
O381	O2-		 0.9111695  0.4999971  0.1332438       0
O382	O2-		 0.9497883  0.7499923  0.0753117       0
O383	O2-		 0.7501115  0.9464848  0.1251652       0
O384	O2-		 0.6734825  0.6596460  0.0102045       0
Si385	Si4+	 0.8889516  0.9483502  0.0628749       0
O386	O2-		 0.9165721  0.8748757  0.0535207       0
O387	O2-		 0.9931992  0.9897931  0.3403642       0
Si388	Si4+	 0.7085702  0.8334466  0.4483623       0
O389	O2-		 0.7023284  0.8748361  0.3748577       0
O390	O2-		 0.8935659  0.9898175  0.4898183       0
Si391	Si4+	 0.9655512  0.5628277  0.3334549       0
O392	O2-		 0.9165695  0.5534844  0.3748577       0
O393	O2-		 0.9932009  0.8403762  0.4898183       0
Si394	Si4+	 0.9655537  0.8334606  0.0628749       0
O395	O2-		 0.9111709  0.6332706  0.0000000       0
O396	O2-		 0.9497895  0.5753185  0.2500114       0
Si397	Si4+	 0.7085702  0.9483544  0.3334549       0
O398	O2-		 0.6666568  0.8667641  0.1332438       0
O399	O2-		 0.8333418  0.9247114  0.0753117       0
Si400	Si4+	 0.8889516  0.5628625  0.4483623       0
O401	O2-		 0.7554966  0.4999758  0.3667259       0
O402	O2-		 0.7168574  0.7499769  0.4247111       0
Sin403	Si4+	 0.7776966  0.5516720  0.4371479       0
Si404	Si4+	 0.9581133  0.6665756  0.0516605       0
Si405	Si4+	 0.7010945  0.9371415  0.1665680       0
Si406	Si4+	 0.7011077  0.6665539  0.9371708       0
O407	O2-		 0.7555125  0.8667516  0.5000228       0
O408	O2-		 0.7168692  0.9246919  0.7499811       0
O409	O2-		 0.7500894  0.6251388  0.9465249       0
O410	O2-		 0.6734595  0.5102173  0.6596283       0
Si411	Si4+	 0.9580886  0.5516560  0.6665377       0
O412	O2-		 0.6666686  0.6332463  0.8667488       0
O413	O2-		 0.8333170  0.5752990  0.9246808       0
O414	O2-		 0.9643303  0.6251743  0.6251348       0
On415	O2-		 0.7730928  0.5101930  0.5101742       0
Si416	Si4+	 0.7777071  0.9371479  0.5516302       0
O417	O2-		 0.9111827  0.4999894  0.6332666       0
O418	O2-		 0.9497988  0.7499805  0.5752814       0
O419	O2-		 0.7500867  0.9464731  0.6251348       0
O420	O2-		 0.6734578  0.6596342  0.5101742       0
Si421	Si4+	 0.8889621  0.9483384  0.5628446       0
O422	O2-		 0.9165826  0.8748639  0.5534904       0
O423	O2-		 0.9932097  0.9897814  0.8403339       0
Si424	Si4+	 0.7085807  0.8334348  0.9483320       0
O425	O2-		 0.7023389  0.8748243  0.8748274       0
O426	O2-		 0.8935764  0.9898057  0.9897880       0
Si427	Si4+	 0.9655642  0.5628690  0.8334245       0
O428	O2-		 0.9165800  0.5534726  0.8748274       0
O429	O2-		 0.9932114  0.8403644  0.9897880       0
Si430	Si4+	 0.9655642  0.8334488  0.5628446       0
O431	O2-		 0.9111841  0.6332629  0.5000228       0
O432	O2-		 0.9498000  0.5753067  0.7499811       0
Si433	Si4+	 0.7085807  0.9483426  0.8334245       0
O434	O2-		 0.6666700  0.8667564  0.6332666       0
O435	O2-		 0.8333170  0.9246996  0.5752814       0
Si436	Si4+	 0.8889621  0.5628507  0.9483320       0
O437	O2-		 0.7555123  0.5000210  0.8667488       0
O438	O2-		 0.7168704  0.7500181  0.9246808       0
Si439	Si4+	 0.7777098  0.5516643  0.9371708       0
Si440	Si4+	 0.9580886  0.6665639  0.5516302       0
Si441	Si4+	 0.7011050  0.9371297  0.6665377       0
		   
  
