data_coi
_symmetry_cell_setting           triclinic 
_symmetry_space_group_name_H-M   'P 1' 
_symmetry_Int_Tables_number      1 
loop_ 
_symmetry_equiv_pos_site_id 
_symmetry_equiv_pos_as_xyz 
1 x,y,z 
_cell_length_a             17.223901        
_cell_length_b             17.223901        
_cell_length_c             17.223900        
_cell_angle_alpha          98.578105        
_cell_angle_beta           98.384198        
_cell_angle_gamma         134.832155        
loop_  
_atom_site_label   
_atom_site_type_symbol  
_atom_site_fract_x  
_atom_site_fract_y  
_atom_site_fract_z 
 C0  C    -0.138864     -0.402553      0.394368 
 C1  C     0.199798      0.461287     -0.395280 
 C2  C     0.356166      0.460455      0.237988 
 C3  C     0.209995      0.104513     -0.237814 
 C4  C    -0.051616     -0.389199      0.384331 
 C5  C     0.218990     -0.444033     -0.385847 
 C6  C     0.364246      0.478865      0.162148 
 C7  C     0.306795      0.193782     -0.164112 
 C8  C    -0.153332     -0.427065      0.262670 
 C9  C     0.318771     -0.412761     -0.266607 
 C10  C     0.329874     -0.433933      0.226929 
 C11  C     0.334330      0.099472     -0.228472 
 C12  C    -0.395075     -0.454704      0.108772 
 C13  C     0.461460     -0.448093     -0.115016 
 C14  C     0.324620     -0.288575      0.407017 
 C15  C     0.245244     -0.148849     -0.440948 
 C16  C    -0.426906      0.479417      0.028282 
 C17  C     0.472082     -0.397975     -0.037075 
 C18  C     0.256932     -0.278077      0.368461 
 C19  C     0.294311     -0.179861     -0.406191 
 C20  C    -0.436070      0.394312      0.114793 
 C21  C     0.285704      0.445104     -0.111719 
 C22  C     0.145607     -0.464513      0.338520 
 C23  C     0.202325     -0.183845     -0.328686 
 C24  C    -0.484779      0.475742      0.401284 
 C25  C     0.073922      0.116369     -0.396164 
 C26  C     0.224746      0.329965      0.458262 
 C27  C    -0.136448     -0.237054     -0.458990 
 C28  C     0.465449      0.389788      0.437072 
 C29  C    -0.047770      0.032002     -0.430227 
 C30  C     0.138930      0.208155      0.422971 
 C31  C    -0.221402     -0.287541     -0.422076 
 C32  C    -0.453303      0.377024      0.357778 
 C33  C     0.021833      0.192568     -0.347108 
 C34  C     0.123046      0.272514      0.328615 
 C35  C    -0.060927     -0.208416     -0.330149 
 C36  C     0.372031      0.004083      0.318800 
 C37  C    -0.328723      0.055001     -0.319655 
 C38  C    -0.250252     -0.068656      0.129734 
 C39  C    -0.197321     -0.375060     -0.119377 
 C40  C     0.409783     -0.028195      0.270936 
 C41  C    -0.308312      0.143994     -0.271450 
 C42  C    -0.282211     -0.053305      0.059529 
 C43  C    -0.108571     -0.334535     -0.050955 
 C44  C    -0.439387      0.157686      0.350050 
 C45  C    -0.183328      0.218010     -0.336780 
 C46  C    -0.094983      0.058228      0.097572 
 C47  C    -0.035285     -0.193225     -0.099372 
 C48  C     0.121074     -0.037746      0.440889 
 C49  C     0.499317     -0.316357     -0.432133 
 C50  C    -0.288677     -0.230745      0.338475 
 C51  C     0.431081      0.360570     -0.323268 
 C52  C     0.204985      0.032223      0.405263 
 C53  C    -0.396715     -0.196763     -0.392541 
 C54  C    -0.220639     -0.125579      0.324145 
 C55  C    -0.448927      0.442287     -0.306489 
 C56  C     0.295239      0.079943     -0.464082 
 C57  C    -0.443491     -0.239364      0.471381 
 C58  C    -0.164549     -0.201910      0.287051 
 C59  C    -0.493468     -0.465956     -0.299239 
 C60  C    -0.212780      0.490330     -0.344122 
 C61  C    -0.166186      0.134144      0.355013 
 C62  C     0.239014      0.089745      0.198413 
 C63  C    -0.127662      0.023970     -0.204741 
 C64  C    -0.298281      0.446290     -0.417567 
 C65  C    -0.136641      0.122067      0.428384 
 C66  C     0.195697      0.120060      0.240147 
 C67  C    -0.141703     -0.062661     -0.247556 
 C68  C    -0.351754      0.298509     -0.388176 
 C69  C    -0.316355      0.032935      0.396416 
 C70  C     0.047541     -0.060565      0.150550 
 C71  C    -0.220711     -0.114135     -0.151128 
 C72  C     0.066018     -0.345270     -0.140632 
 C73  C    -0.205695      0.201596      0.149336 
 C74  C     0.401931      0.045489      0.088238 
 C75  C    -0.049638      0.303625     -0.090172 
 C76  C     0.180642     -0.257285     -0.138672 
 C77  C    -0.120033      0.312497      0.144554 
 C78  C     0.490441      0.131191      0.061755 
 C79  C     0.061893      0.418514     -0.066187 
 C80  C     0.093518     -0.424894     -0.226139 
 C81  C    -0.199128      0.317976      0.230743 
 C82  C     0.323631      0.051823     -0.019108 
 C83  C     0.068438      0.336545      0.016254 
 C84  C    -0.236228      0.385858     -0.010562 
 C85  C     0.399441     -0.218925      0.014501 
 C86  C     0.134655     -0.352394      0.118215 
 C87  C    -0.471989      0.014428     -0.120322 
 C88  C    -0.157941      0.420473     -0.051584 
 C89  C     0.476725     -0.099883      0.058240 
 C90  C     0.171270     -0.273879      0.077098 
 C91  C    -0.353514      0.090280     -0.075969 
 C92  C    -0.322117      0.334171     -0.143765 
 C93  C     0.469225     -0.180635      0.148014 
 C94  C     0.075201     -0.278094      0.150086 
 C95  C    -0.429196     -0.076279     -0.153387 
 H96  H     0.284061     -0.047549      0.320028 
 H97  H    -0.393758     -0.037921     -0.327269 
 H98  H    -0.302776     -0.123327      0.164946 
 H99  H    -0.289768     -0.461029     -0.148377 
 H100  H     0.360117     -0.112946      0.223907 
 H101  H    -0.351369      0.141437     -0.229197 
 H102  H    -0.367366     -0.092738      0.023381 
 H103  H    -0.110888     -0.380128     -0.011509 
 H104  H    -0.349254      0.246981      0.380858 
 H105  H    -0.113827      0.279679     -0.360475 
 H106  H    -0.004803      0.119147      0.098254 
 H107  H     0.025919     -0.106996     -0.105918 
 H108  H     0.025199     -0.106706      0.413367 
 H109  H     0.442445     -0.383776     -0.405644 
 H110  H    -0.359994     -0.275322      0.363162 
 H111  H     0.364142      0.265775     -0.337155 
 H112  H     0.195171      0.036776      0.342340 
 H113  H    -0.343973     -0.142930     -0.325707 
 H114  H    -0.219886     -0.060749      0.336360 
 H115  H    -0.394131      0.430595     -0.306315 
 H116  H     0.364984      0.122681     -0.404562 
 H117  H    -0.442764     -0.229884      0.409801 
 H118  H    -0.118061     -0.215511      0.262686 
 H119  H    -0.484814     -0.395411     -0.289541 
 H120  H    -0.130789     -0.418760     -0.303657 
 H121  H    -0.114937      0.177644      0.315386 
 H122  H     0.329648      0.140955      0.205350 
 H123  H    -0.086705      0.105706     -0.213830 
 H124  H    -0.304054      0.492595     -0.450625 
 H125  H    -0.055754      0.152577      0.462727 
 H126  H     0.242431      0.201605      0.289981 
 H127  H    -0.116382     -0.069353     -0.300806 
 H128  H    -0.400760      0.208894     -0.392912 
 H129  H    -0.402885     -0.015110      0.399561 
 H130  H    -0.042268     -0.147202      0.112479 
 H131  H    -0.263747     -0.162501     -0.109907 
 H132  H     0.019691     -0.340517     -0.106701 
 H133  H    -0.234895      0.120541      0.118065 
 H134  H     0.406093      0.016635      0.139623 
 H135  H    -0.131624      0.255058     -0.140113 
 H136  H    -0.159366     -0.396410      0.450736 
 H137  H     0.146051      0.381695     -0.450213 
 H138  H     0.364277      0.412061      0.265411 
 H139  H     0.130368      0.079544     -0.264175 
 H140  H     0.250969     -0.163025     -0.101552 
 H141  H    -0.062990      0.343240      0.107479 
 H142  H    -0.415429      0.188043      0.086006 
 H143  H     0.092457      0.486702     -0.091879 
 H144  H     0.078027     -0.489365     -0.272904 
 H145  H    -0.216665      0.351407      0.275821 
 H146  H     0.259707      0.034468     -0.068213 
 H147  H     0.102590      0.324136      0.065826 
 H148  H    -0.224668      0.396184      0.055871 
 H149  H     0.347733     -0.270125     -0.052872 
 H150  H     0.147806     -0.406187      0.117457 
 H151  H     0.475199      0.028649     -0.119711 
 H152  H    -0.067522      0.466512     -0.026588 
 H153  H    -0.496471     -0.031160      0.034935 
 H154  H     0.221624     -0.248167      0.035358 
 H155  H    -0.286863      0.180950     -0.031596 
 H156  H    -0.387652      0.299236     -0.203211 
 H157  H     0.486973     -0.191540      0.206923 
 H158  H     0.035730     -0.258094      0.178960 
 H159  H    -0.437395     -0.143743     -0.183416 
 H160  H     0.016849     -0.368750      0.430418 
 H161  H     0.185486     -0.427105     -0.431210 
 H162  H     0.382030      0.450625      0.113258 
 H163  H     0.325679      0.259649     -0.115897 
 H164  H    -0.185635     -0.445545      0.195364 
 H165  H     0.374647     -0.372760     -0.200538 
 H166  H     0.312020     -0.384489      0.240896 
 H167  H     0.373062      0.071286     -0.242396 
 H168  H    -0.369189     -0.373837      0.131190 
 H169  H    -0.470987     -0.420945     -0.140248 
 H170  H     0.417494     -0.220903      0.446997 
 H171  H     0.247057     -0.125473     -0.496982 
 H172  H    -0.433900      0.493286     -0.031262 
 H173  H    -0.449319     -0.318651      0.016513 
 H174  H     0.281698     -0.199517      0.368040 
 H175  H     0.345393     -0.188805     -0.427509 
 H176  H    -0.449987      0.331159      0.138755 
 H177  H     0.189846      0.376221     -0.130368 
 H178  H     0.068544      0.439569      0.311471 
 H179  H     0.166346     -0.194994     -0.278500 
 H180  H    -0.482619     -0.458370      0.408632 
 H181  H     0.131521      0.110731     -0.405956 
 H182  H     0.292125      0.389630     -0.478653 
 H183  H    -0.141904     -0.233877      0.477548 
 H184  H     0.417770      0.368692      0.480329 
 H185  H    -0.113259     -0.058566     -0.474473 
 H186  H     0.119406      0.144765      0.449938 
 H187  H    -0.312302     -0.335068     -0.447729 
 H188  H    -0.422061      0.348529      0.326156 
 H189  H     0.026773      0.255891     -0.312992 
 H190  H     0.093091      0.274545      0.268933 
 H191  H     0.002147     -0.178475     -0.271356 
 N192  N    -0.202990     -0.426531      0.316827 
 N193  N     0.263765      0.482008     -0.319396 
 N194  N     0.334652     -0.483629      0.278836 
 N195  N     0.228269      0.045161     -0.278325 
 N196  N    -0.061415     -0.404793      0.300486 
 N197  N     0.294700     -0.364436     -0.303933 
 N198  N     0.347519     -0.453912      0.155700 
 N199  N     0.385384      0.189959     -0.158695 
 N200  N    -0.400983      0.490599      0.163273 
 N201  N     0.342643      0.452148     -0.162082 
 N202  N     0.253139     -0.407414      0.387631 
 N203  N     0.187191     -0.151455     -0.391161 
 N204  N    -0.452666      0.383856      0.032811 
 N205  N     0.360052     -0.466571     -0.035527 
 N206  N     0.143386     -0.390225      0.325348 
 N207  N     0.266634     -0.201790     -0.334938 
 N208  N    -0.433268      0.466883      0.351020 
 N209  N     0.117242      0.218022     -0.343341 
 N210  N     0.213769      0.369983      0.397818 
 N211  N    -0.034805     -0.187001     -0.399944 
 N212  N     0.485782      0.327693      0.408729 
 N213  N    -0.079660      0.081364     -0.398489 
 N214  N     0.074942      0.172853      0.340828 
 N215  N    -0.172391     -0.269024     -0.340520 
 N216  N     0.468340      0.122013      0.368929 
 N217  N    -0.248982      0.102710     -0.360871 
 N218  N    -0.131426      0.002219      0.153258 
 N219  N    -0.150132     -0.284933     -0.149775 
 N220  N    -0.470353      0.070159      0.290900 
 N221  N    -0.215455      0.247349     -0.282470 
 N222  N    -0.182790      0.027977      0.039855 
 N223  N    -0.005759     -0.219023     -0.038889 
 N224  N     0.315152      0.106481      0.466257 
 N225  N    -0.361365     -0.148681     -0.454496 
 N226  N    -0.142150     -0.108257      0.291505 
 N227  N    -0.401888     -0.447729     -0.291018 
 N228  N     0.179331     -0.006429     -0.476127 
 N229  N     0.470753     -0.342731      0.481540 
 N230  N    -0.252069     -0.278107      0.315143 
 N231  N     0.403476      0.419562     -0.318895 
 N232  N    -0.247312      0.396080     -0.325990 
 N233  N    -0.280282      0.077452      0.335195 
 N234  N     0.144516     -0.024833      0.141703 
 N235  N    -0.177892     -0.009280     -0.143615 
 N236  N    -0.386447      0.324363     -0.444969 
 N237  N    -0.232777      0.057133      0.454145 
 N238  N     0.073881      0.023819      0.209574 
 N239  N    -0.201343     -0.150363     -0.213347 
 N240  N     0.011499     -0.451434     -0.196137 
 N241  N    -0.255619      0.205800      0.204069 
 N242  N     0.296245     -0.004693      0.036364 
 N243  N    -0.044706      0.252313     -0.037406 
 N244  N     0.197376     -0.308765     -0.192975 
 N245  N    -0.116686      0.385745      0.196245 
 N246  N     0.439821      0.134343     -0.006603 
 N247  N     0.136184      0.438755      0.001576 
 N248  N    -0.213336      0.387318     -0.136008 
 N249  N    -0.479418     -0.076511      0.142901 
 N250  N     0.133188     -0.227142      0.097828 
 N251  N    -0.327358      0.031806     -0.097463 
 N252  N    -0.340369      0.330865     -0.069747 
 N253  N     0.395060     -0.269477      0.072140 
 N254  N     0.073347     -0.354744      0.164162 
 N255  N     0.480716     -0.091237     -0.169208 
 Zn256  Zn     0.469162      0.217493      0.451972 
 Zn257  Zn    -0.234209      0.019937     -0.440195 
 Zn258  Zn    -0.033552      0.018350      0.248438 
 Zn259  Zn    -0.234731     -0.290909     -0.247790 
 Zn260  Zn    -0.158844      0.399274     -0.232968 
 Zn261  Zn    -0.369820      0.073260      0.241924 
 Zn262  Zn     0.145989     -0.116983      0.056640 
 Zn263  Zn    -0.178187      0.082061     -0.056373 
 Zn264  Zn    -0.486122      0.263536     -0.053575 
 Zn265  Zn     0.312348     -0.432318      0.050619 
 Zn266  Zn     0.009846     -0.437959      0.243511 
 Zn267  Zn     0.318553     -0.235647     -0.247921 
 Zn268  Zn    -0.331250     -0.439900      0.289103 
 Zn269  Zn     0.275779      0.380706     -0.288535 
 Zn270  Zn     0.314031     -0.472957      0.391318 
 Zn271  Zn     0.128303     -0.084523     -0.393058 
loop_  
_geom_bond_atom_site_label_1  
_geom_bond_atom_site_label_2  
C0   C4 
C0   H136 
C0   N192 
C1   C5 
C1   H137 
C1   N193 
C2   C6 
C2   H138 
C2   N194 
C3   C7 
C3   H139 
C3   N195 
C4   H160 
C4   N196 
C5   H161 
C5   N197 
C6   H162 
C6   N198 
C7   H163 
C7   N199 
C8   H164 
C8   N192 
C8   N196 
C9   H165 
C9   N193 
C9   N197 
C10   H166 
C10   N194 
C10   N198 
C11   H167 
C11   N195 
C11   N199 
C12   C16 
C12   H168 
C12   N200 
C13   C17 
C13   H169 
C13   N201 
C14   C18 
C14   H170 
C14   N202 
C15   C19 
C15   H171 
C15   N203 
C16   H172 
C16   N204 
C17   H173 
C17   N205 
C18   H174 
C18   N206 
C19   H175 
C19   N207 
C20   H176 
C20   N200 
C20   N204 
C21   H177 
C21   N201 
C21   N205 
C22   H178 
C22   N202 
C22   N206 
C23   H179 
C23   N203 
C23   N207 
C24   C28 
C24   H180 
C24   N208 
C25   C29 
C25   H181 
C25   N209 
C26   C30 
C26   H182 
C26   N210 
C27   C31 
C27   H183 
C27   N211 
C28   H184 
C28   N212 
C29   H185 
C29   N213 
C30   H186 
C30   N214 
C31   H187 
C31   N215 
C32   H188 
C32   N208 
C32   N212 
C33   H189 
C33   N209 
C33   N213 
C34   H190 
C34   N210 
C34   N214 
C35   H191 
C35   N211 
C35   N215 
C36   C40 
C36   H96 
C36   N216 
C37   C41 
C37   H97 
C37   N217 
C38   C42 
C38   H98 
C38   N218 
C39   C43 
C39   H99 
C39   N219 
C40   H100 
C40   N220 
C41   H101 
C41   N221 
C42   H102 
C42   N222 
C43   H103 
C43   N223 
C44   H104 
C44   N216 
C44   N220 
C45   H105 
C45   N217 
C45   N221 
C46   H106 
C46   N218 
C46   N222 
C47   H107 
C47   N219 
C47   N223 
C48   C52 
C48   H108 
C48   N228 
C49   C53 
C49   H109 
C49   N229 
C50   C54 
C50   H110 
C50   N230 
C51   C55 
C51   H111 
C51   N231 
C52   H112 
C52   N224 
C53   H113 
C53   N225 
C54   H114 
C54   N226 
C55   H115 
C55   N227 
C56   H116 
C56   N224 
C56   N228 
C57   H117 
C57   N225 
C57   N229 
C58   H118 
C58   N226 
C58   N230 
C59   H119 
C59   N227 
C59   N231 
C60   C64 
C60   H120 
C60   N232 
C61   C65 
C61   H121 
C61   N233 
C62   C66 
C62   H122 
C62   N234 
C63   C67 
C63   H123 
C63   N235 
C64   H124 
C64   N236 
C65   H125 
C65   N237 
C66   H126 
C66   N238 
C67   H127 
C67   N239 
C68   H128 
C68   N232 
C68   N236 
C69   H129 
C69   N233 
C69   N237 
C70   H130 
C70   N234 
C70   N238 
C71   H131 
C71   N235 
C71   N239 
C72   C76 
C72   H132 
C72   N240 
C73   C77 
C73   H133 
C73   N241 
C74   C78 
C74   H134 
C74   N242 
C75   C79 
C75   H135 
C75   N243 
C76   H140 
C76   N244 
C77   H141 
C77   N245 
C78   H142 
C78   N246 
C79   H143 
C79   N247 
C80   H144 
C80   N240 
C80   N244 
C81   H145 
C81   N241 
C81   N245 
C82   H146 
C82   N242 
C82   N246 
C83   H147 
C83   N243 
C83   N247 
C84   C88 
C84   H148 
C84   N252 
C85   C89 
C85   H149 
C85   N253 
C86   C90 
C86   H150 
C86   N254 
C87   C91 
C87   H151 
C87   N255 
C88   H152 
C88   N248 
C89   H153 
C89   N249 
C90   H154 
C90   N250 
C91   H155 
C91   N251 
C92   H156 
C92   N248 
C92   N252 
C93   H157 
C93   N249 
C93   N253 
C94   H158 
C94   N250 
C94   N254 
C95   H159 
C95   N251 
C95   N255 
N192   Zn268 
N193   Zn269 
N194   Zn270 
N195   Zn271 
N196   Zn266 
N197   Zn267 
N198   Zn265 
N199   Zn264 
N200   Zn268 
N201   Zn269 
N202   Zn270 
N203   Zn271 
N204   Zn264 
N205   Zn265 
N206   Zn266 
N207   Zn267 
N208   Zn268 
N209   Zn269 
N210   Zn270 
N211   Zn271 
N212   Zn256 
N213   Zn257 
N214   Zn258 
N215   Zn259 
N216   Zn256 
N217   Zn257 
N218   Zn258 
N219   Zn259 
N220   Zn261 
N221   Zn260 
N222   Zn263 
N223   Zn262 
N224   Zn256 
N225   Zn257 
N226   Zn258 
N227   Zn259 
N228   Zn271 
N229   Zn270 
N230   Zn268 
N231   Zn269 
N232   Zn260 
N233   Zn261 
N234   Zn262 
N235   Zn263 
N236   Zn256 
N237   Zn257 
N238   Zn258 
N239   Zn259 
N240   Zn260 
N241   Zn261 
N242   Zn262 
N243   Zn263 
N244   Zn267 
N245   Zn266 
N246   Zn264 
N247   Zn265 
N248   Zn260 
N249   Zn261 
N250   Zn262 
N251   Zn263 
N252   Zn264 
N253   Zn265 
N254   Zn266 
N255   Zn267 
  
#END  
