data_nog
_symmetry_cell_setting           triclinic 
_symmetry_space_group_name_H-M   'P 1' 
_symmetry_Int_Tables_number      1 
loop_ 
_symmetry_equiv_pos_site_id 
_symmetry_equiv_pos_as_xyz 
1 x,y,z 
_cell_length_a             24.464993        
_cell_length_b              9.604134        
_cell_length_c             34.575554        
_cell_angle_alpha          90.000000        
_cell_angle_beta          133.192293        
_cell_angle_gamma          90.000000        
loop_  
_atom_site_label   
_atom_site_type_symbol  
_atom_site_fract_x  
_atom_site_fract_y  
_atom_site_fract_z 
 C0  C    -0.381777     -0.261243      0.289518 
 C1  C     0.381761      0.238712      0.210481 
 C2  C     0.381777      0.261243     -0.289518 
 C3  C    -0.381761     -0.238712     -0.210481 
 C4  C    -0.420508     -0.378909      0.258113 
 C5  C     0.420502      0.121071      0.241898 
 C6  C     0.420508      0.378909     -0.258113 
 C7  C    -0.420502     -0.121071     -0.241898 
 C8  C    -0.499463     -0.240187      0.249304 
 C9  C     0.499447      0.259789      0.250694 
 C10  C     0.499463      0.240187     -0.249304 
 C11  C    -0.499447     -0.259789     -0.250694 
 C12  C    -0.296013      0.235637      0.363909 
 C13  C     0.296078     -0.264322      0.136136 
 C14  C     0.296013     -0.235637     -0.363909 
 C15  C    -0.296078      0.264322     -0.136136 
 C16  C    -0.253073      0.291399      0.354780 
 C17  C     0.253144     -0.208548      0.145269 
 C18  C     0.253073     -0.291399     -0.354780 
 C19  C    -0.253144      0.208548     -0.145269 
 C20  C    -0.309926      0.104961      0.305886 
 C21  C     0.309912     -0.395098      0.194105 
 C22  C     0.309926     -0.104961     -0.305886 
 C23  C    -0.309912      0.395098     -0.194105 
 C24  C    -0.201307     -0.027921      0.250926 
 C25  C     0.201296      0.471942      0.249075 
 C26  C     0.201307      0.027921     -0.250926 
 C27  C    -0.201296     -0.471942     -0.249075 
 C28  C    -0.237313     -0.145103      0.218530 
 C29  C     0.237312      0.354778      0.281479 
 C30  C     0.237313      0.145103     -0.218530 
 C31  C    -0.237312     -0.354778     -0.281479 
 C32  C    -0.322442      0.001495      0.197313 
 C33  C     0.322429     -0.498630      0.302674 
 C34  C     0.322442     -0.001495     -0.197313 
 C35  C    -0.322429      0.498630     -0.302674 
 C36  C    -0.110505      0.351298      0.289340 
 C37  C     0.110509     -0.148951      0.210685 
 C38  C     0.110505     -0.351298     -0.289340 
 C39  C    -0.110509      0.148951     -0.210685 
 C40  C     0.490000     -0.139535      0.141232 
 C41  C    -0.490011      0.360323      0.358764 
 C42  C    -0.490000      0.139535     -0.141232 
 C43  C     0.490011     -0.360323     -0.358764 
 C44  C     0.434307     -0.037768      0.116129 
 C45  C    -0.434320      0.462092      0.383860 
 C46  C    -0.434307      0.037768     -0.116129 
 C47  C     0.434320     -0.462092     -0.383860 
 C48  C     0.469029     -0.061248      0.072641 
 C49  C    -0.469013      0.438603      0.427367 
 C50  C    -0.469029      0.061248     -0.072641 
 C51  C     0.469013     -0.438603     -0.427367 
 C52  C    -0.475797     -0.318506      0.018379 
 C53  C     0.475757      0.181430      0.481622 
 C54  C     0.475797      0.318506     -0.018379 
 C55  C    -0.475757     -0.181430     -0.481622 
 C56  C    -0.464954     -0.293137     -0.015635 
 C57  C     0.464919      0.206853     -0.484363 
 C58  C     0.464954      0.293137      0.015635 
 C59  C    -0.464919     -0.206853      0.484363 
 C60  C    -0.373666     -0.194477      0.060912 
 C61  C     0.373670      0.305596      0.439098 
 C62  C     0.373666      0.194477     -0.060912 
 C63  C    -0.373670     -0.305596     -0.439098 
 C64  C    -0.438176      0.468931      0.151383 
 C65  C     0.438170     -0.031117      0.348606 
 C66  C     0.438176     -0.468931     -0.151383 
 C67  C    -0.438170      0.031117     -0.348606 
 C68  C    -0.400738      0.353763      0.184610 
 C69  C     0.400738     -0.146294      0.315383 
 C70  C     0.400738     -0.353763     -0.184610 
 C71  C    -0.400738      0.146294     -0.315383 
 C72  C    -0.317475     -0.499385      0.202812 
 C73  C     0.317469      0.000477      0.297214 
 C74  C     0.317475      0.499385     -0.202812 
 C75  C    -0.317469     -0.000477     -0.297214 
 C76  C     0.238679     -0.072554     -0.038897 
 C77  C    -0.238707      0.427224     -0.461054 
 C78  C    -0.238679      0.072554      0.038897 
 C79  C     0.238707     -0.427224      0.461054 
 C80  C     0.164357     -0.097092     -0.085175 
 C81  C    -0.164386      0.402701     -0.414770 
 C82  C    -0.164357      0.097092      0.085175 
 C83  C     0.164386     -0.402701      0.414770 
 C84  C     0.191065      0.120795     -0.084729 
 C85  C    -0.191067     -0.379341     -0.415282 
 C86  C    -0.191065     -0.120795      0.084729 
 C87  C     0.191067      0.379341      0.415282 
 C88  C     0.350705      0.468427      0.034365 
 C89  C    -0.350682     -0.031716      0.465650 
 C90  C    -0.350705     -0.468427     -0.034365 
 C91  C     0.350682      0.031716     -0.465650 
 C92  C     0.368560     -0.445305      0.074118 
 C93  C    -0.368534      0.054599      0.425909 
 C94  C    -0.368560      0.445305     -0.074118 
 C95  C     0.368534     -0.054599     -0.425909 
 C96  C     0.379061      0.337884      0.097740 
 C97  C    -0.379047     -0.162184      0.402256 
 C98  C    -0.379061     -0.337884     -0.097740 
 C99  C     0.379047      0.162184     -0.402256 
 C100  C     0.080001      0.185415     -0.235984 
 C101  C    -0.080006     -0.314516     -0.264036 
 C102  C    -0.080001     -0.185415      0.235984 
 C103  C     0.080006      0.314516      0.264036 
 C104  C     0.063763      0.297237     -0.268130 
 C105  C    -0.063760     -0.202680     -0.231892 
 C106  C    -0.063763     -0.297237      0.268130 
 C107  C     0.063760      0.202680      0.231892 
 C108  C    -0.002919      0.318172     -0.247652 
 C109  C     0.002972     -0.181865     -0.252332 
 C110  C     0.002919     -0.318172      0.247652 
 C111  C    -0.002972      0.181865      0.252332 
 C112  C     0.014471     -0.355224     -0.375218 
 C113  C    -0.014558      0.144205     -0.124799 
 C114  C    -0.014471      0.355224      0.375218 
 C115  C     0.014558     -0.144205      0.124799 
 C116  C     0.077774     -0.315174     -0.365376 
 C117  C    -0.077854      0.184294     -0.134639 
 C118  C    -0.077774      0.315174      0.365376 
 C119  C     0.077854     -0.184294      0.134639 
 H120  H    -0.043820     -0.369474     -0.412705 
 H121  H     0.043700      0.129630     -0.087312 
 H122  H     0.043820      0.369474      0.412705 
 H123  H    -0.043700     -0.129630      0.087312 
 H124  H     0.084171     -0.287063     -0.392832 
 H125  H    -0.084276      0.212118     -0.107176 
 H126  H    -0.084171      0.287063      0.392832 
 H127  H     0.084276     -0.212118      0.107176 
 H128  H    -0.144522      0.359164      0.246485 
 H129  H     0.144486     -0.141493      0.253543 
 H130  H     0.144522     -0.359164     -0.246485 
 H131  H    -0.144486      0.141493     -0.253543 
 H132  H    -0.484389     -0.202429      0.176540 
 H133  H     0.484366      0.297432      0.323454 
 H134  H     0.484389      0.202429     -0.176540 
 H135  H    -0.484366     -0.297432     -0.323454 
 H136  H     0.403507      0.001590      0.126406 
 H137  H    -0.403533     -0.498543      0.373573 
 H138  H    -0.403507     -0.001590     -0.126406 
 H139  H     0.403533      0.498543     -0.373573 
 H140  H     0.473183     -0.045992      0.043255 
 H141  H    -0.473154      0.453860      0.456759 
 H142  H    -0.473183      0.045992     -0.043255 
 H143  H     0.473154     -0.453860     -0.456759 
 H144  H     0.479979     -0.377292      0.011743 
 H145  H    -0.480037      0.122579      0.488255 
 H146  H    -0.479979      0.377292     -0.011743 
 H147  H     0.480037     -0.122579     -0.488255 
 H148  H    -0.498466     -0.325062     -0.056958 
 H149  H     0.498418      0.174917     -0.443043 
 H150  H     0.498466      0.325062      0.056958 
 H151  H    -0.498418     -0.174917      0.443043 
 H152  H    -0.322716     -0.135135      0.092384 
 H153  H     0.322740      0.364988      0.407630 
 H154  H     0.322716      0.135135     -0.092384 
 H155  H    -0.322740     -0.364988     -0.407630 
 H156  H    -0.498185      0.492887      0.121058 
 H157  H     0.498176     -0.007124      0.378915 
 H158  H     0.498185     -0.492887     -0.121058 
 H159  H    -0.498176      0.007124     -0.378915 
 H160  H    -0.322406     -0.233719      0.315321 
 H161  H     0.322388      0.266222      0.184673 
 H162  H     0.322406      0.233719     -0.315321 
 H163  H    -0.322388     -0.266222     -0.184673 
 H164  H    -0.423380      0.260180      0.187602 
 H165  H     0.423383     -0.239849      0.312380 
 H166  H     0.423380     -0.260180     -0.187602 
 H167  H    -0.423383      0.239849     -0.312380 
 H168  H    -0.263367     -0.451444      0.221891 
 H169  H     0.263359      0.048368      0.278154 
 H170  H     0.263367      0.451444     -0.221891 
 H171  H    -0.263359     -0.048368     -0.278154 
 H172  H     0.281100     -0.142606     -0.006172 
 H173  H    -0.281134      0.357132     -0.493759 
 H174  H    -0.281100      0.142606      0.006172 
 H175  H     0.281134     -0.357132      0.493759 
 H176  H     0.130664     -0.192399     -0.099912 
 H177  H    -0.130705      0.307374     -0.400006 
 H178  H    -0.130664      0.192399      0.099912 
 H179  H     0.130705     -0.307374      0.400006 
 H180  H     0.185337      0.229343     -0.097003 
 H181  H    -0.185326     -0.270751     -0.403040 
 H182  H    -0.185337     -0.229343      0.097003 
 H183  H     0.185326      0.270751      0.403040 
 H184  H     0.335021      0.494516     -0.003019 
 H185  H    -0.335000     -0.005673     -0.496963 
 H186  H    -0.335021     -0.494516      0.003019 
 H187  H     0.335000      0.005673      0.496963 
 H188  H     0.371913     -0.331454      0.077490 
 H189  H    -0.371880      0.168452      0.422552 
 H190  H    -0.371913      0.331454     -0.077490 
 H191  H     0.371880     -0.168452     -0.422552 
 H192  H     0.389926      0.246672      0.121239 
 H193  H    -0.389915     -0.253368      0.378745 
 H194  H    -0.389926     -0.246672     -0.121239 
 H195  H     0.389915      0.253368     -0.378745 
 H196  H     0.119355      0.098830     -0.220671 
 H197  H    -0.119387     -0.401059     -0.279364 
 H198  H    -0.119355     -0.098830      0.220671 
 H199  H     0.119387      0.401059      0.279364 
 H200  H     0.084868      0.323406     -0.286798 
 H201  H    -0.084886     -0.176457     -0.213242 
 H202  H    -0.084868     -0.323406      0.286798 
 H203  H     0.084886      0.176457      0.213242 
 H204  H    -0.400564     -0.469198      0.251292 
 H205  H     0.400567      0.030789      0.248730 
 H206  H     0.400564      0.469198     -0.251292 
 H207  H    -0.400567     -0.030789     -0.248730 
 H208  H    -0.041896      0.359301     -0.244774 
 H209  H     0.041981     -0.140806     -0.255190 
 H210  H     0.041896     -0.359301      0.244774 
 H211  H    -0.041981      0.140806      0.255190 
 H212  H     0.448247     -0.197945      0.235901 
 H213  H    -0.448268      0.302034      0.264090 
 H214  H    -0.448247      0.197945     -0.235901 
 H215  H     0.448268     -0.302034     -0.264090 
 H216  H    -0.303111      0.270595      0.390448 
 H217  H     0.303207     -0.229322      0.109617 
 H218  H     0.303111     -0.270595     -0.390448 
 H219  H    -0.303208      0.229322     -0.109617 
 H220  H    -0.217416      0.384356      0.371457 
 H221  H     0.217527     -0.115540      0.128617 
 H222  H     0.217416     -0.384356     -0.371457 
 H223  H    -0.217527      0.115540     -0.128617 
 H224  H    -0.328975      0.021489      0.277313 
 H225  H     0.328920     -0.478622      0.222652 
 H226  H     0.328975     -0.021489     -0.277313 
 H227  H    -0.328920      0.478622     -0.222652 
 H228  H    -0.141440     -0.003927      0.282762 
 H229  H     0.141427      0.495928      0.217242 
 H230  H     0.141440      0.003927     -0.282762 
 H231  H    -0.141427     -0.495928     -0.217242 
 H232  H    -0.213913     -0.238943      0.216497 
 H233  H     0.213919      0.260945      0.283523 
 H234  H     0.213913      0.238943     -0.216497 
 H235  H    -0.213919     -0.260945     -0.283523 
 H236  H    -0.377304      0.048245      0.176845 
 H237  H     0.377287     -0.451878      0.323132 
 H238  H     0.377304     -0.048245     -0.176845 
 H239  H    -0.377287      0.451878     -0.323132 
 N240  N    -0.432411     -0.173597      0.283566 
 N241  N     0.432390      0.326353      0.216425 
 N242  N     0.432411      0.173597     -0.283566 
 N243  N    -0.432390     -0.326353     -0.216425 
 N244  N    -0.495222     -0.364596      0.232787 
 N245  N     0.495215      0.135400      0.267224 
 N246  N     0.495222      0.364596     -0.232787 
 N247  N    -0.495215     -0.135400     -0.267224 
 N248  N    -0.331904      0.117309      0.332626 
 N249  N     0.331916     -0.382720      0.167383 
 N250  N     0.331904     -0.117309     -0.332626 
 N251  N    -0.331916      0.382720     -0.167383 
 N252  N    -0.261967      0.207270      0.318110 
 N253  N     0.261987     -0.292746      0.181904 
 N254  N     0.261967     -0.207270     -0.318110 
 N255  N    -0.261987      0.292746     -0.181904 
 N256  N    -0.255947      0.064590      0.237059 
 N257  N     0.255930     -0.435551      0.262929 
 N258  N     0.255947     -0.064590     -0.237059 
 N259  N    -0.255930      0.435551     -0.262929 
 N260  N    -0.314152     -0.125604      0.184748 
 N261  N     0.314148      0.374285      0.315253 
 N262  N     0.314152      0.125604     -0.184748 
 N263  N    -0.314148     -0.374285     -0.315253 
 N264  N    -0.138505      0.313183      0.310758 
 N265  N     0.138531     -0.186812      0.189262 
 N266  N     0.138505     -0.313183     -0.310758 
 N267  N    -0.138531      0.186812     -0.189262 
 N268  N    -0.035781      0.377843      0.326757 
 N269  N     0.035819     -0.122087      0.173267 
 N270  N     0.035781     -0.377843     -0.326757 
 N271  N    -0.035819      0.122087     -0.173267 
 N272  N    -0.488743     -0.154063      0.113071 
 N273  N     0.488750      0.345792      0.386936 
 N274  N     0.488743      0.154063     -0.113071 
 N275  N    -0.488750     -0.345792     -0.386936 
 N276  N     0.421553      0.011681      0.072663 
 N277  N    -0.421549     -0.488465      0.427333 
 N278  N    -0.421553     -0.011681     -0.072663 
 N279  N     0.421549      0.488465     -0.427333 
 N280  N    -0.417569     -0.255765      0.066850 
 N281  N     0.417554      0.244223      0.433157 
 N282  N     0.417569      0.255765     -0.066850 
 N283  N    -0.417554     -0.244223     -0.433157 
 N284  N    -0.399909     -0.214389      0.011764 
 N285  N     0.399901      0.285686      0.488243 
 N286  N     0.399909      0.214389     -0.011764 
 N287  N    -0.399901     -0.285686     -0.488243 
 N288  N    -0.384799     -0.438471      0.163318 
 N289  N     0.384790      0.061431      0.336693 
 N290  N     0.384799      0.438471     -0.163318 
 N291  N    -0.384790     -0.061431     -0.336693 
 N292  N    -0.324071      0.374823      0.217021 
 N293  N     0.324072     -0.125291      0.282996 
 N294  N     0.324071     -0.374823     -0.217021 
 N295  N    -0.324072      0.125291     -0.282996 
 N296  N     0.255070      0.066083     -0.038960 
 N297  N    -0.255079     -0.434093     -0.461035 
 N298  N    -0.255070     -0.066083      0.038960 
 N299  N     0.255079      0.434093      0.461035 
 N300  N     0.134643      0.026192     -0.114014 
 N301  N    -0.134657     -0.473958     -0.385969 
 N302  N    -0.134643     -0.026192      0.114014 
 N303  N     0.134657      0.473958      0.385969 
 N304  N     0.357426      0.330933      0.049741 
 N305  N    -0.357409     -0.169194      0.450256 
 N306  N    -0.357426     -0.330933     -0.049741 
 N307  N     0.357409      0.169194     -0.450256 
 N308  N     0.386592      0.470481      0.114209 
 N309  N    -0.386571     -0.029565      0.385806 
 N310  N    -0.386592     -0.470481     -0.114209 
 N311  N     0.386571      0.029565     -0.385806 
 N312  N     0.037365      0.199652     -0.223236 
 N313  N    -0.037339     -0.300359     -0.276761 
 N314  N    -0.037365     -0.199652      0.223236 
 N315  N     0.037339      0.300359      0.276761 
 N316  N     0.011185      0.380965     -0.275212 
 N317  N    -0.011144     -0.119017     -0.224785 
 N318  N    -0.011185     -0.380965      0.275212 
 N319  N     0.011144      0.119017      0.224785 
 Zn320  Zn    -0.415104      0.011169      0.317475 
 Zn321  Zn     0.415111     -0.488913      0.182540 
 Zn322  Zn     0.415104     -0.011169     -0.317475 
 Zn323  Zn    -0.415111      0.488913     -0.182540 
 Zn324  Zn    -0.241421      0.245510      0.272213 
 Zn325  Zn     0.241423     -0.254628      0.227795 
 Zn326  Zn     0.241421     -0.245510     -0.272213 
 Zn327  Zn    -0.241423      0.254628     -0.227795 
 Zn328  Zn    -0.401268     -0.252885      0.131812 
 Zn329  Zn     0.401267      0.247027      0.368198 
 Zn330  Zn     0.401268      0.252885     -0.131812 
 Zn331  Zn    -0.401267     -0.247027     -0.368198 
 Zn332  Zn     0.354309      0.156843      0.016763 
 Zn333  Zn    -0.354305     -0.343299      0.483228 
 Zn334  Zn    -0.354309     -0.156843     -0.016763 
 Zn335  Zn     0.354305      0.343299     -0.483228 
 Zn336  Zn     0.031183      0.059174     -0.183832 
 Zn337  Zn    -0.031186     -0.440908     -0.316174 
 Zn338  Zn    -0.031183     -0.059174      0.183832 
 Zn339  Zn     0.031186      0.440908      0.316174 
loop_  
_geom_bond_atom_site_label_1  
_geom_bond_atom_site_label_2  
C0   C4 
C0   H160 
C0   N240 
C1   C5 
C1   H161 
C1   N241 
C2   C6 
C2   H162 
C2   N242 
C3   C7 
C3   H163 
C3   N243 
C4   H204 
C4   N244 
C5   H205 
C5   N245 
C6   H206 
C6   N246 
C7   H207 
C7   N247 
C8   H212 
C8   N240 
C8   N244 
C9   H213 
C9   N241 
C9   N245 
C10   H214 
C10   N242 
C10   N246 
C11   H215 
C11   N243 
C11   N247 
C12   C16 
C12   H216 
C12   N248 
C13   C17 
C13   H217 
C13   N249 
C14   C18 
C14   H218 
C14   N250 
C15   C19 
C15   H219 
C15   N251 
C16   H220 
C16   N252 
C17   H221 
C17   N253 
C18   H222 
C18   N254 
C19   H223 
C19   N255 
C20   H224 
C20   N248 
C20   N252 
C21   H225 
C21   N249 
C21   N253 
C22   H226 
C22   N250 
C22   N254 
C23   H227 
C23   N251 
C23   N255 
C24   C28 
C24   H228 
C24   N256 
C25   C29 
C25   H229 
C25   N257 
C26   C30 
C26   H230 
C26   N258 
C27   C31 
C27   H231 
C27   N259 
C28   H232 
C28   N260 
C29   H233 
C29   N261 
C30   H234 
C30   N262 
C31   H235 
C31   N263 
C32   H236 
C32   N256 
C32   N260 
C33   H237 
C33   N257 
C33   N261 
C34   H238 
C34   N258 
C34   N262 
C35   H239 
C35   N259 
C35   N263 
C36   H128 
C36   N264 
C36   N268 
C37   H129 
C37   N265 
C37   N269 
C38   H130 
C38   N266 
C38   N270 
C39   H131 
C39   N267 
C39   N271 
C40   C44 
C40   H132 
C40   N272 
C41   C45 
C41   H133 
C41   N273 
C42   C46 
C42   H134 
C42   N274 
C43   C47 
C43   H135 
C43   N275 
C44   H136 
C44   N276 
C45   H137 
C45   N277 
C46   H138 
C46   N278 
C47   H139 
C47   N279 
C48   H140 
C48   N272 
C48   N276 
C49   H141 
C49   N273 
C49   N277 
C50   H142 
C50   N274 
C50   N278 
C51   H143 
C51   N275 
C51   N279 
C52   C56 
C52   H144 
C52   N280 
C53   C57 
C53   H145 
C53   N281 
C54   C58 
C54   H146 
C54   N282 
C55   C59 
C55   H147 
C55   N283 
C56   H148 
C56   N284 
C57   H149 
C57   N285 
C58   H150 
C58   N286 
C59   H151 
C59   N287 
C60   H152 
C60   N280 
C60   N284 
C61   H153 
C61   N281 
C61   N285 
C62   H154 
C62   N282 
C62   N286 
C63   H155 
C63   N283 
C63   N287 
C64   C68 
C64   H156 
C64   N288 
C65   C69 
C65   H157 
C65   N289 
C66   C70 
C66   H158 
C66   N290 
C67   C71 
C67   H159 
C67   N291 
C68   H164 
C68   N292 
C69   H165 
C69   N293 
C70   H166 
C70   N294 
C71   H167 
C71   N295 
C72   H168 
C72   N288 
C72   N292 
C73   H169 
C73   N289 
C73   N293 
C74   H170 
C74   N290 
C74   N294 
C75   H171 
C75   N291 
C75   N295 
C76   C80 
C76   H172 
C76   N296 
C77   C81 
C77   H173 
C77   N297 
C78   C82 
C78   H174 
C78   N298 
C79   C83 
C79   H175 
C79   N299 
C80   H176 
C80   N300 
C81   H177 
C81   N301 
C82   H178 
C82   N302 
C83   H179 
C83   N303 
C84   H180 
C84   N296 
C84   N300 
C85   H181 
C85   N297 
C85   N301 
C86   H182 
C86   N298 
C86   N302 
C87   H183 
C87   N299 
C87   N303 
C88   C92 
C88   H184 
C88   N304 
C89   C93 
C89   H185 
C89   N305 
C90   C94 
C90   H186 
C90   N306 
C91   C95 
C91   H187 
C91   N307 
C92   H188 
C92   N308 
C93   H189 
C93   N309 
C94   H190 
C94   N310 
C95   H191 
C95   N311 
C96   H192 
C96   N304 
C96   N308 
C97   H193 
C97   N305 
C97   N309 
C98   H194 
C98   N306 
C98   N310 
C99   H195 
C99   N307 
C99   N311 
C100   C104 
C100   H196 
C100   N312 
C101   C105 
C101   H197 
C101   N313 
C102   C106 
C102   H198 
C102   N314 
C103   C107 
C103   H199 
C103   N315 
C104   H200 
C104   N316 
C105   H201 
C105   N317 
C106   H202 
C106   N318 
C107   H203 
C107   N319 
C108   H208 
C108   N312 
C108   N316 
C109   H209 
C109   N313 
C109   N317 
C110   H210 
C110   N314 
C110   N318 
C111   H211 
C111   N315 
C111   N319 
C112   C116 
C112   H120 
C112   N270 
C113   C117 
C113   H121 
C113   N271 
C114   C118 
C114   H122 
C114   N268 
C115   C119 
C115   H123 
C115   N269 
C116   H124 
C116   N266 
C117   H125 
C117   N267 
C118   H126 
C118   N264 
C119   H127 
C119   N265 
N240   Zn320 
N241   Zn321 
N242   Zn322 
N243   Zn323 
N244   Zn321 
N245   Zn320 
N246   Zn323 
N247   Zn322 
N248   Zn320 
N249   Zn321 
N250   Zn322 
N251   Zn323 
N252   Zn324 
N253   Zn325 
N254   Zn326 
N255   Zn327 
N256   Zn324 
N257   Zn325 
N258   Zn326 
N259   Zn327 
N260   Zn328 
N261   Zn329 
N262   Zn330 
N263   Zn331 
N264   Zn324 
N265   Zn325 
N266   Zn326 
N267   Zn327 
N268   Zn339 
N269   Zn338 
N270   Zn337 
N271   Zn336 
N272   Zn328 
N273   Zn329 
N274   Zn330 
N275   Zn331 
N276   Zn332 
N277   Zn333 
N278   Zn334 
N279   Zn335 
N280   Zn328 
N281   Zn329 
N282   Zn330 
N283   Zn331 
N284   Zn334 
N285   Zn335 
N286   Zn332 
N287   Zn333 
N288   Zn328 
N289   Zn329 
N290   Zn330 
N291   Zn331 
N292   Zn324 
N293   Zn325 
N294   Zn326 
N295   Zn327 
N296   Zn332 
N297   Zn333 
N298   Zn334 
N299   Zn335 
N300   Zn336 
N301   Zn337 
N302   Zn338 
N303   Zn339 
N304   Zn332 
N305   Zn333 
N306   Zn334 
N307   Zn335 
N308   Zn321 
N309   Zn320 
N310   Zn323 
N311   Zn322 
N312   Zn336 
N313   Zn337 
N314   Zn338 
N315   Zn339 
N316   Zn337 
N317   Zn336 
N318   Zn339 
N319   Zn338 
  
#END  
