data_ZIF1
_symmetry_cell_setting           triclinic 
_symmetry_space_group_name_H-M   'P 1' 
_symmetry_Int_Tables_number      1 
loop_ 
_symmetry_equiv_pos_site_id 
_symmetry_equiv_pos_as_xyz 
1 x,y,z 
_cell_length_a              9.941852        
_cell_length_b             14.924560        
_cell_length_c             16.445530        
_cell_angle_alpha          90.000000        
_cell_angle_beta          118.511006        
_cell_angle_gamma          90.000000        
loop_  
_atom_site_label   
_atom_site_type_symbol  
_atom_site_fract_x  
_atom_site_fract_y  
_atom_site_fract_z 
 C0  C    -0.314980      0.099703      0.165607 
 C1  C     0.314976     -0.400299      0.334392 
 C2  C     0.314980     -0.099703     -0.165607 
 C3  C    -0.314976      0.400299     -0.334392 
 H4  H    -0.404133      0.073749      0.099134 
 H5  H     0.404134     -0.426253      0.400864 
 H6  H     0.404133     -0.073748     -0.099134 
 H7  H    -0.404134      0.426252     -0.400864 
 C8  C    -0.151134      0.110326      0.313232 
 C9  C     0.151124     -0.389676      0.186768 
 C10  C     0.151134     -0.110326     -0.313232 
 C11  C    -0.151124      0.389676     -0.186768 
 H12  H    -0.088601      0.091242      0.386410 
 H13  H     0.088588     -0.408761      0.113590 
 H14  H     0.088601     -0.091242     -0.386410 
 H15  H    -0.088588      0.408761     -0.113590 
 C16  C    -0.142723      0.188029      0.269001 
 C17  C     0.142712     -0.311974      0.231000 
 C18  C     0.142723     -0.188029     -0.269001 
 C19  C    -0.142712      0.311974     -0.231000 
 H20  H    -0.071342      0.247873      0.297316 
 H21  H     0.071328     -0.252132      0.202686 
 H22  H     0.071342     -0.247873     -0.297316 
 H23  H    -0.071328      0.252132     -0.202686 
 C24  C    -0.039737      0.276814      0.029388 
 C25  C     0.039733     -0.223185      0.470611 
 C26  C     0.039737     -0.276814     -0.029388 
 C27  C    -0.039733      0.223186     -0.470611 
 H28  H    -0.096515      0.224973     -0.023353 
 H29  H     0.096510     -0.275027     -0.476648 
 H30  H     0.096515     -0.224973      0.023353 
 H31  H    -0.096510      0.275027      0.476648 
 C32  C    -0.010266      0.378020      0.132716 
 C33  C     0.010266     -0.121979      0.367283 
 C34  C     0.010266     -0.378020     -0.132716 
 C35  C    -0.010266      0.121980     -0.367283 
 H36  H    -0.032854      0.421359      0.178809 
 H37  H     0.032855     -0.078641      0.321191 
 H38  H     0.032854     -0.421359     -0.178809 
 H39  H    -0.032855      0.078641     -0.321191 
 C40  C    -0.386832      0.469086      0.112418 
 C41  C     0.386831     -0.030917      0.387583 
 C42  C     0.386832     -0.469087     -0.112418 
 C43  C    -0.386831      0.030917     -0.387583 
 H44  H    -0.329765     -0.499013      0.077098 
 H45  H     0.329764      0.000983      0.422903 
 H46  H     0.329765      0.499013     -0.077098 
 H47  H    -0.329764     -0.000983     -0.422903 
 C48  C     0.385349      0.272494     -0.084182 
 C49  C    -0.385353     -0.227506     -0.415818 
 C50  C    -0.385349     -0.272494      0.084182 
 C51  C     0.385353      0.227506      0.415818 
 H52  H     0.357343      0.331619     -0.055627 
 H53  H    -0.357348     -0.168382     -0.444373 
 H54  H    -0.357343     -0.331619      0.055628 
 H55  H     0.357348      0.168382      0.444373 
 C56  C     0.477107      0.006051      0.352331 
 C57  C    -0.477108     -0.493947      0.147669 
 C58  C    -0.477107     -0.006051     -0.352331 
 C59  C     0.477108      0.493947     -0.147669 
 H60  H    -0.490091      0.075936      0.350761 
 H61  H     0.490090     -0.424062      0.149240 
 H62  H     0.490091     -0.075936     -0.350761 
 H63  H    -0.490089      0.424062     -0.149240 
 C64  C     0.463817     -0.139041      0.329942 
 C65  C    -0.463817      0.360962      0.170058 
 C66  C    -0.463817      0.139041     -0.329942 
 C67  C     0.463817     -0.360962     -0.170058 
 H68  H     0.479225     -0.205949      0.307858 
 H69  H    -0.479225      0.294054      0.192142 
 H70  H    -0.479225      0.205949     -0.307858 
 H71  H     0.479225     -0.294054     -0.192141 
 C72  C    -0.104279     -0.184186      0.438025 
 C73  C     0.104276      0.315813      0.061974 
 C74  C     0.104279      0.184186     -0.438025 
 C75  C    -0.104276     -0.315813     -0.061974 
 H76  H    -0.194933     -0.197633      0.456390 
 H77  H     0.194929      0.302365      0.043608 
 H78  H     0.194933      0.197633     -0.456390 
 H79  H    -0.194929     -0.302365     -0.043608 
 C80  C     0.475346     -0.163765      0.093717 
 C81  C    -0.475345      0.336236      0.406282 
 C82  C    -0.475346      0.163765     -0.093717 
 C83  C     0.475345     -0.336236     -0.406282 
 H84  H     0.377799     -0.119470      0.078122 
 H85  H    -0.377800      0.380532      0.421877 
 H86  H    -0.377799      0.119470     -0.078122 
 H87  H     0.377800     -0.380532     -0.421877 
 C88  C    -0.296376     -0.223760      0.164440 
 C89  C     0.296379      0.276239      0.335559 
 C90  C     0.296376      0.223760     -0.164440 
 C91  C    -0.296379     -0.276239     -0.335559 
 H92  H    -0.177988     -0.234135      0.218607 
 H93  H     0.177991      0.265863      0.281393 
 H94  H     0.177988      0.234135     -0.218607 
 H95  H    -0.177991     -0.265863     -0.281393 
 N96  N    -0.246833      0.180650      0.175358 
 N97  N     0.246827     -0.319353      0.324642 
 N98  N     0.246833     -0.180649     -0.175358 
 N99  N    -0.246827      0.319353     -0.324642 
 N100  N    -0.260818      0.054579      0.246952 
 N101  N     0.260812     -0.445422      0.253047 
 N102  N     0.260818     -0.054579     -0.246952 
 N103  N    -0.260812      0.445422     -0.253047 
 N104  N    -0.111731      0.316722      0.074650 
 N105  N     0.111729     -0.183278      0.425350 
 N106  N     0.111731     -0.316722     -0.074650 
 N107  N    -0.111729      0.183278     -0.425350 
 N108  N    -0.379387      0.377011      0.126675 
 N109  N     0.379387     -0.122993      0.373325 
 N110  N     0.379387     -0.377011     -0.126675 
 N111  N    -0.379387      0.122993     -0.373325 
 N112  N    -0.469720      0.234094     -0.039728 
 N113  N     0.469718     -0.265908     -0.460272 
 N114  N     0.469720     -0.234094      0.039728 
 N115  N    -0.469718      0.265908      0.460272 
 N116  N    -0.474730     -0.063220      0.315779 
 N117  N     0.474729      0.436782      0.184221 
 N118  N     0.474730      0.063220     -0.315779 
 N119  N    -0.474729     -0.436782     -0.184221 
 N120  N    -0.385628     -0.154689      0.169839 
 N121  N     0.385629      0.345311      0.330160 
 N122  N     0.385628      0.154689     -0.169839 
 N123  N    -0.385629     -0.345311     -0.330160 
 N124  N    -0.121770     -0.119859      0.372599 
 N125  N     0.121769      0.380140      0.127400 
 N126  N     0.121770      0.119859     -0.372599 
 N127  N    -0.121769     -0.380140     -0.127400 
 Zn128  Zn    -0.317287     -0.065285      0.273832 
 Zn129  Zn     0.317284      0.434714      0.226167 
 Zn130  Zn     0.317287      0.065285     -0.273831 
 Zn131  Zn    -0.317284     -0.434714     -0.226167 
 Zn132  Zn    -0.298688      0.277678      0.079949 
 Zn133  Zn     0.298685     -0.222325      0.420051 
 Zn134  Zn     0.298688     -0.277678     -0.079949 
 Zn135  Zn    -0.298685      0.222325     -0.420051 
loop_  
_geom_bond_atom_site_label_1  
_geom_bond_atom_site_label_2  
C0   H4 
C0   N96 
C0   N100 
C1   H5 
C1   N97 
C1   N101 
C2   H6 
C2   N98 
C2   N102 
C3   H7 
C3   N99 
C3   N103 
C8   H12 
C8   C16 
C8   N100 
C9   H13 
C9   C17 
C9   N101 
C10   H14 
C10   C18 
C10   N102 
C11   H15 
C11   C19 
C11   N103 
C16   H20 
C16   N96 
C17   H21 
C17   N97 
C18   H22 
C18   N98 
C19   H23 
C19   N99 
C24   H28 
C24   C73 
C24   N104 
C25   H29 
C25   C72 
C25   N105 
C26   H30 
C26   C75 
C26   N106 
C27   H31 
C27   C74 
C27   N107 
C32   H36 
C32   N104 
C32   N125 
C33   H37 
C33   N105 
C33   N124 
C34   H38 
C34   N106 
C34   N127 
C35   H39 
C35   N107 
C35   N126 
C40   H44 
C40   C57 
C40   N108 
C41   H45 
C41   C56 
C41   N109 
C42   H46 
C42   C59 
C42   N110 
C43   H47 
C43   C58 
C43   N111 
C48   H52 
C48   C90 
C48   N112 
C49   H53 
C49   C91 
C49   N113 
C50   H54 
C50   C88 
C50   N114 
C51   H55 
C51   C89 
C51   N115 
C56   H60 
C56   N116 
C57   H61 
C57   N117 
C58   H62 
C58   N118 
C59   H63 
C59   N119 
C64   H68 
C64   N109 
C64   N116 
C65   H69 
C65   N108 
C65   N117 
C66   H70 
C66   N111 
C66   N118 
C67   H71 
C67   N110 
C67   N119 
C72   H76 
C72   N124 
C73   H77 
C73   N125 
C74   H78 
C74   N126 
C75   H79 
C75   N127 
C80   H84 
C80   N114 
C80   N120 
C81   H85 
C81   N115 
C81   N121 
C82   H86 
C82   N112 
C82   N122 
C83   H87 
C83   N113 
C83   N123 
C88   H92 
C88   N120 
C89   H93 
C89   N121 
C90   H94 
C90   N122 
C91   H95 
C91   N123 
N96   Zn132 
N97   Zn133 
N98   Zn134 
N99   Zn135 
N100   Zn128 
N101   Zn129 
N102   Zn130 
N103   Zn131 
N104   Zn132 
N105   Zn133 
N106   Zn134 
N107   Zn135 
N108   Zn132 
N109   Zn133 
N110   Zn134 
N111   Zn135 
N112   Zn132 
N113   Zn133 
N114   Zn134 
N115   Zn135 
N116   Zn128 
N117   Zn129 
N118   Zn130 
N119   Zn131 
N120   Zn128 
N121   Zn129 
N122   Zn130 
N123   Zn131 
N124   Zn128 
N125   Zn129 
N126   Zn130 
N127   Zn131 
  
#END  
