data_ZIF4
_symmetry_cell_setting           triclinic 
_symmetry_space_group_name_H-M   'P 1' 
_symmetry_Int_Tables_number      1 
loop_ 
_symmetry_equiv_pos_site_id 
_symmetry_equiv_pos_as_xyz 
1 x,y,z 
_cell_length_a             14.732767        
_cell_length_b             18.294863        
_cell_length_c             15.263974        
_cell_angle_alpha          90.000000        
_cell_angle_beta           90.000000        
_cell_angle_gamma          90.000000        
loop_  
_atom_site_label   
_atom_site_type_symbol  
_atom_site_fract_x  
_atom_site_fract_y  
_atom_site_fract_z 
 C0  C    -0.240488     -0.346458     -0.118798 
 C1  C    -0.259510      0.346460      0.381203 
 C2  C     0.259509     -0.153539      0.118799 
 C3  C     0.240489      0.153543     -0.381202 
 C4  C     0.240488      0.346458      0.118798 
 C5  C     0.259510     -0.346460     -0.381203 
 C6  C    -0.259509      0.153539     -0.118799 
 C7  C    -0.240489     -0.153543      0.381202 
 C8  C     0.378639     -0.093972      0.071671 
 C9  C     0.121364      0.093971     -0.428330 
 C10  C    -0.121362     -0.406028     -0.071669 
 C11  C    -0.378638      0.406029      0.428330 
 C12  C    -0.378639      0.093972     -0.071671 
 C13  C    -0.121364     -0.093971      0.428330 
 C14  C     0.121362      0.406028      0.071669 
 C15  C     0.378638     -0.406029     -0.428331 
 C16  C     0.328092     -0.116960     -0.000426 
 C17  C     0.171911      0.116959      0.499573 
 C18  C    -0.171910     -0.383041      0.000428 
 C19  C    -0.328091      0.383042     -0.499572 
 C20  C    -0.328092      0.116960      0.000426 
 C21  C    -0.171911     -0.116959     -0.499573 
 C22  C     0.171910      0.383041     -0.000428 
 C23  C     0.328091     -0.383041      0.499572 
 C24  C     0.457451     -0.232013      0.327984 
 C25  C     0.042550      0.232012     -0.172013 
 C26  C    -0.042546     -0.267986     -0.327985 
 C27  C    -0.457453      0.267988      0.172018 
 C28  C    -0.457451      0.232013     -0.327984 
 C29  C    -0.042550     -0.232012      0.172013 
 C30  C     0.042546      0.267986      0.327985 
 C31  C     0.457453     -0.267988     -0.172018 
 C32  C     0.149016     -0.118954      0.317519 
 C33  C     0.350985      0.118957     -0.182484 
 C34  C    -0.350983     -0.381044     -0.317515 
 C35  C    -0.149015      0.381044      0.182482 
 C36  C    -0.149016      0.118954     -0.317519 
 C37  C    -0.350985     -0.118957      0.182484 
 C38  C     0.350983      0.381044      0.317515 
 C39  C     0.149015     -0.381044     -0.182482 
 C40  C     0.241885     -0.188025      0.392513 
 C41  C     0.258115      0.188025     -0.107486 
 C42  C    -0.258114     -0.311976     -0.392513 
 C43  C    -0.241886      0.311974      0.107488 
 C44  C    -0.241885      0.188025     -0.392512 
 C45  C    -0.258115     -0.188025      0.107486 
 C46  C     0.258114      0.311976      0.392513 
 C47  C     0.241885     -0.311974     -0.107488 
 C48  C     0.135461     -0.043171     -0.124451 
 C49  C     0.364541      0.043173      0.375552 
 C50  C    -0.364540     -0.456829      0.124449 
 C51  C    -0.135462      0.456829     -0.375549 
 C52  C    -0.135461      0.043171      0.124451 
 C53  C    -0.364541     -0.043172     -0.375552 
 C54  C     0.364540      0.456829     -0.124449 
 C55  C     0.135462     -0.456829      0.375549 
 C56  C     0.098044     -0.329836     -0.136052 
 C57  C     0.401955      0.329837      0.363945 
 C58  C    -0.401957     -0.170165      0.136053 
 C59  C    -0.098044      0.170162     -0.363948 
 C60  C    -0.098044      0.329836      0.136052 
 C61  C    -0.401955     -0.329837     -0.363945 
 C62  C     0.401956      0.170165     -0.136053 
 C63  C     0.098044     -0.170162      0.363948 
 C64  C     0.003300     -0.135416      0.100247 
 C65  C     0.496701      0.135417     -0.399753 
 C66  C    -0.496701     -0.364584     -0.100248 
 C67  C    -0.003300      0.364583      0.399754 
 C68  C    -0.003300      0.135416     -0.100248 
 C69  C    -0.496701     -0.135417      0.399753 
 C70  C     0.496701      0.364584      0.100248 
 C71  C     0.003300     -0.364583     -0.399754 
 C72  C     0.016119     -0.254414      0.105612 
 C73  C     0.483881      0.254416     -0.394385 
 C74  C    -0.483879     -0.245586     -0.105617 
 C75  C    -0.016122      0.245585      0.394387 
 C76  C    -0.016118      0.254414     -0.105612 
 C77  C    -0.483881     -0.254416      0.394385 
 C78  C     0.483879      0.245586      0.105617 
 C79  C     0.016122     -0.245585     -0.394387 
 C80  C     0.398660      0.065735      0.238663 
 C81  C     0.101344     -0.065734     -0.261339 
 C82  C    -0.101327      0.434269     -0.238664 
 C83  C    -0.398660     -0.434266      0.261337 
 C84  C    -0.398660     -0.065735     -0.238663 
 C85  C    -0.101344      0.065734      0.261339 
 C86  C     0.101327     -0.434269      0.238664 
 C87  C     0.398660      0.434266     -0.261337 
 C88  C     0.099076     -0.131252     -0.214834 
 C89  C     0.400927      0.131253      0.285168 
 C90  C    -0.400928     -0.368748      0.214831 
 C91  C    -0.099060      0.368750     -0.285169 
 C92  C    -0.099075      0.131252      0.214834 
 C93  C    -0.400927     -0.131253     -0.285168 
 C94  C     0.400928      0.368748     -0.214831 
 C95  C     0.099061     -0.368750      0.285169 
 H96  H     0.024461     -0.321220     -0.133927 
 H97  H     0.475538      0.321222      0.366068 
 H98  H    -0.475539     -0.178781      0.133930 
 H99  H    -0.024461      0.178778     -0.366071 
 H100  H    -0.024461      0.321221      0.133927 
 H101  H    -0.475538     -0.321222     -0.366068 
 H102  H     0.475539      0.178781     -0.133930 
 H103  H     0.024461     -0.178778      0.366071 
 H104  H     0.011813     -0.078260      0.079885 
 H105  H     0.488190      0.078262     -0.420118 
 H106  H    -0.488191     -0.421739     -0.079883 
 H107  H    -0.011810      0.421738      0.420118 
 H108  H    -0.011812      0.078260     -0.079885 
 H109  H    -0.488190     -0.078262      0.420118 
 H110  H     0.488191      0.421739      0.079883 
 H111  H     0.011810     -0.421738     -0.420118 
 H112  H     0.039053     -0.309179      0.086600 
 H113  H     0.460946      0.309180     -0.413396 
 H114  H    -0.460944     -0.190821     -0.086605 
 H115  H    -0.039057      0.190820      0.413399 
 H116  H    -0.039052      0.309179     -0.086600 
 H117  H    -0.460946     -0.309180      0.413396 
 H118  H     0.460944      0.190821      0.086605 
 H119  H     0.039057     -0.190820     -0.413399 
 H120  H     0.057275      0.063593     -0.425460 
 H121  H     0.442730     -0.063596      0.074542 
 H122  H    -0.442728      0.436406      0.425459 
 H123  H    -0.057272     -0.436406     -0.074539 
 H124  H    -0.057275     -0.063592      0.425460 
 H125  H    -0.442730      0.063596     -0.074542 
 H126  H     0.442728     -0.436406     -0.425460 
 H127  H     0.057272      0.436406      0.074539 
 H128  H     0.409906      0.054779      0.168876 
 H129  H     0.090098     -0.054779     -0.331127 
 H130  H    -0.090073      0.445224     -0.168878 
 H131  H    -0.409906     -0.445221      0.331124 
 H132  H    -0.409906     -0.054779     -0.168876 
 H133  H    -0.090098      0.054779      0.331127 
 H134  H     0.090073     -0.445224      0.168878 
 H135  H     0.409907      0.445221     -0.331124 
 H136  H     0.085012     -0.187089     -0.237069 
 H137  H     0.414991      0.187090      0.262933 
 H138  H    -0.414993     -0.312911      0.237066 
 H139  H    -0.084992      0.312914     -0.262935 
 H140  H    -0.085012      0.187089      0.237069 
 H141  H    -0.414991     -0.187090     -0.262933 
 H142  H     0.414993      0.312911     -0.237066 
 H143  H     0.084992     -0.312913      0.262935 
 H144  H     0.160069      0.109034      0.429294 
 H145  H     0.339936     -0.109036     -0.070705 
 H146  H    -0.339934      0.390966     -0.429294 
 H147  H    -0.160068     -0.390967      0.070706 
 H148  H    -0.160069     -0.109034     -0.429294 
 H149  H    -0.339936      0.109036      0.070705 
 H150  H     0.339934     -0.390966      0.429293 
 H151  H     0.160068      0.390967     -0.070706 
 H152  H     0.195690      0.288158      0.419379 
 H153  H     0.304311     -0.288155     -0.080624 
 H154  H    -0.304310      0.211843     -0.419377 
 H155  H    -0.195690     -0.211843      0.080620 
 H156  H    -0.195689     -0.288158     -0.419379 
 H157  H    -0.304311      0.288156      0.080624 
 H158  H     0.304310     -0.211844      0.419377 
 H159  H     0.195690      0.211842     -0.080620 
 H160  H     0.079448      0.264112     -0.221111 
 H161  H     0.420554     -0.264111      0.278884 
 H162  H    -0.420557      0.235889      0.221118 
 H163  H    -0.079442     -0.235887     -0.278885 
 H164  H    -0.079448     -0.264112      0.221111 
 H165  H    -0.420554      0.264111     -0.278884 
 H166  H     0.420557     -0.235889     -0.221118 
 H167  H     0.079442      0.235887      0.278885 
 H168  H    -0.343210     -0.014119     -0.435031 
 H169  H    -0.156791      0.014117      0.064972 
 H170  H     0.156801     -0.485882      0.435026 
 H171  H     0.343207      0.485882     -0.064970 
 H172  H     0.343210      0.014119      0.435031 
 H173  H     0.156791     -0.014117     -0.064972 
 H174  H    -0.156801      0.485882     -0.435026 
 H175  H    -0.343207     -0.485882      0.064970 
 H176  H    -0.209087      0.321961      0.337190 
 H177  H    -0.290909     -0.321958     -0.162812 
 H178  H     0.290911      0.178043     -0.337188 
 H179  H     0.209085     -0.178036      0.162812 
 H180  H     0.209087     -0.321961     -0.337190 
 H181  H     0.290909      0.321957      0.162812 
 H182  H    -0.290911     -0.178043      0.337188 
 H183  H    -0.209085      0.178036     -0.162812 
 H184  H    -0.373349     -0.075812      0.227442 
 H185  H    -0.126651      0.075807     -0.272563 
 H186  H     0.126650     -0.424190     -0.227438 
 H187  H     0.373347      0.424190      0.272556 
 H188  H     0.373349      0.075812     -0.227442 
 H189  H     0.126651     -0.075807      0.272563 
 H190  H    -0.126650      0.424190      0.227439 
 H191  H    -0.373347     -0.424190     -0.272556 
 N192  N     0.157768     -0.286398     -0.088354 
 N193  N     0.342232      0.286400      0.411645 
 N194  N    -0.342233     -0.213602      0.088353 
 N195  N    -0.157768      0.213601     -0.411645 
 N196  N    -0.157768      0.286398      0.088354 
 N197  N    -0.342232     -0.286400     -0.411645 
 N198  N     0.342233      0.213602     -0.088353 
 N199  N     0.157768     -0.213602      0.411645 
 N200  N    -0.379423     -0.383714      0.128052 
 N201  N    -0.120575      0.383715     -0.371946 
 N202  N     0.120579     -0.116286     -0.128054 
 N203  N     0.379423      0.116288      0.371948 
 N204  N     0.379423      0.383714     -0.128052 
 N205  N     0.120575     -0.383715      0.371946 
 N206  N    -0.120579      0.116286      0.128054 
 N207  N    -0.379423     -0.116287     -0.371948 
 N208  N    -0.455229     -0.307296     -0.060371 
 N209  N    -0.044771      0.307295      0.439632 
 N210  N     0.044771     -0.192703      0.060369 
 N211  N     0.455229      0.192706     -0.439630 
 N212  N     0.455229      0.307296      0.060371 
 N213  N     0.044772     -0.307295     -0.439632 
 N214  N    -0.044771      0.192703     -0.060369 
 N215  N    -0.455229     -0.192706      0.439630 
 N216  N     0.165519      0.117493     -0.352744 
 N217  N     0.334481     -0.117490      0.147257 
 N218  N    -0.334481      0.382509      0.352744 
 N219  N    -0.165516     -0.382507     -0.147256 
 N220  N    -0.165519     -0.117493      0.352744 
 N221  N    -0.334481      0.117490     -0.147258 
 N222  N     0.334481     -0.382508     -0.352745 
 N223  N     0.165516      0.382507      0.147256 
 N224  N     0.247442      0.154653     -0.469736 
 N225  N     0.252558     -0.154650      0.030264 
 N226  N    -0.252558      0.345350      0.469738 
 N227  N    -0.247441     -0.345349     -0.030263 
 N228  N    -0.247442     -0.154653      0.469737 
 N229  N    -0.252558      0.154650     -0.030264 
 N230  N     0.252558     -0.345350     -0.469738 
 N231  N     0.247441      0.345349      0.030263 
 N232  N     0.124526     -0.010121     -0.203419 
 N233  N     0.375477      0.010122      0.296584 
 N234  N    -0.375475     -0.489878      0.203417 
 N235  N    -0.124519      0.489880     -0.296582 
 N236  N    -0.124526      0.010121      0.203419 
 N237  N    -0.375477     -0.010122     -0.296584 
 N238  N     0.375475      0.489878     -0.203417 
 N239  N     0.124519     -0.489880      0.296582 
 N240  N     0.050185      0.156353     -0.168127 
 N241  N     0.449815     -0.156354      0.331873 
 N242  N    -0.449816      0.343647      0.168129 
 N243  N    -0.050183     -0.343645     -0.331873 
 N244  N    -0.050185     -0.156353      0.168127 
 N245  N    -0.449815      0.156354     -0.331873 
 N246  N     0.449816     -0.343647     -0.168129 
 N247  N     0.050183      0.343645      0.331873 
 N248  N     0.259576      0.130848     -0.164126 
 N249  N     0.240425     -0.130846      0.335876 
 N250  N    -0.240424      0.369152      0.164126 
 N251  N    -0.259574     -0.369153     -0.335873 
 N252  N    -0.259576     -0.130848      0.164125 
 N253  N    -0.240425      0.130846     -0.335876 
 N254  N     0.240424     -0.369152     -0.164126 
 N255  N     0.259574      0.369153      0.335873 
 Zn256  Zn     0.140273     -0.189191     -0.032359 
 Zn257  Zn     0.359728      0.189194      0.467642 
 Zn258  Zn    -0.359728     -0.310808      0.032358 
 Zn259  Zn    -0.140272      0.310809     -0.467640 
 Zn260  Zn    -0.140273      0.189191      0.032359 
 Zn261  Zn    -0.359728     -0.189194     -0.467642 
 Zn262  Zn     0.359728      0.310808     -0.032358 
 Zn263  Zn     0.140272     -0.310809      0.467640 
 Zn264  Zn     0.146393      0.404589      0.273942 
 Zn265  Zn     0.353604     -0.404590     -0.226058 
 Zn266  Zn    -0.353605      0.095409     -0.273944 
 Zn267  Zn    -0.146396     -0.095411      0.226058 
 Zn268  Zn    -0.146393     -0.404589     -0.273942 
 Zn269  Zn    -0.353604      0.404590      0.226058 
 Zn270  Zn     0.353605     -0.095409      0.273944 
 Zn271  Zn     0.146396      0.095411     -0.226058 
loop_  
_geom_bond_atom_site_label_1  
_geom_bond_atom_site_label_2  
C0   H177 
C0   N219 
C0   N227 
C1   H176 
C1   N218 
C1   N226 
C2   H179 
C2   N217 
C2   N225 
C3   H178 
C3   N216 
C3   N224 
C4   H181 
C4   N223 
C4   N231 
C5   H180 
C5   N222 
C5   N230 
C6   H183 
C6   N221 
C6   N229 
C7   H182 
C7   N220 
C7   N228 
C8   C16 
C8   H121 
C8   N217 
C9   C17 
C9   H120 
C9   N216 
C10   C18 
C10   H123 
C10   N219 
C11   C19 
C11   H122 
C11   N218 
C12   C20 
C12   H125 
C12   N221 
C13   C21 
C13   H124 
C13   N220 
C14   C22 
C14   H127 
C14   N223 
C15   C23 
C15   H126 
C15   N222 
C16   H145 
C16   N225 
C17   H144 
C17   N224 
C18   H147 
C18   N227 
C19   H146 
C19   N226 
C20   H149 
C20   N229 
C21   H148 
C21   N228 
C22   H151 
C22   N231 
C23   H150 
C23   N230 
C24   C77 
C24   H161 
C24   N241 
C25   C76 
C25   H160 
C25   N240 
C26   C79 
C26   H163 
C26   N243 
C27   C78 
C27   H162 
C27   N242 
C28   C73 
C28   H165 
C28   N245 
C29   C72 
C29   H164 
C29   N244 
C30   C75 
C30   H167 
C30   N247 
C31   C74 
C31   H166 
C31   N246 
C32   C63 
C32   H189 
C32   N249 
C33   C62 
C33   H188 
C33   N248 
C34   C61 
C34   H191 
C34   N251 
C35   C60 
C35   H190 
C35   N250 
C36   C59 
C36   H185 
C36   N253 
C37   C58 
C37   H184 
C37   N252 
C38   C57 
C38   H187 
C38   N255 
C39   C56 
C39   H186 
C39   N254 
C40   H158 
C40   N199 
C40   N249 
C41   H159 
C41   N198 
C41   N248 
C42   H156 
C42   N197 
C42   N251 
C43   H157 
C43   N196 
C43   N250 
C44   H154 
C44   N195 
C44   N253 
C45   H155 
C45   N194 
C45   N252 
C46   H152 
C46   N193 
C46   N255 
C47   H153 
C47   N192 
C47   N254 
C48   H173 
C48   N202 
C48   N232 
C49   H172 
C49   N203 
C49   N233 
C50   H175 
C50   N200 
C50   N234 
C51   H174 
C51   N201 
C51   N235 
C52   H169 
C52   N206 
C52   N236 
C53   H168 
C53   N207 
C53   N237 
C54   H171 
C54   N204 
C54   N238 
C55   H170 
C55   N205 
C55   N239 
C56   H96 
C56   N192 
C57   H97 
C57   N193 
C58   H98 
C58   N194 
C59   H99 
C59   N195 
C60   H100 
C60   N196 
C61   H101 
C61   N197 
C62   H102 
C62   N198 
C63   H103 
C63   N199 
C64   H104 
C64   N210 
C64   N244 
C65   H105 
C65   N211 
C65   N245 
C66   H106 
C66   N208 
C66   N246 
C67   H107 
C67   N209 
C67   N247 
C68   H108 
C68   N214 
C68   N240 
C69   H109 
C69   N215 
C69   N241 
C70   H110 
C70   N212 
C70   N242 
C71   H111 
C71   N213 
C71   N243 
C72   H112 
C72   N210 
C73   H113 
C73   N211 
C74   H114 
C74   N208 
C75   H115 
C75   N209 
C76   H116 
C76   N214 
C77   H117 
C77   N215 
C78   H118 
C78   N212 
C79   H119 
C79   N213 
C80   C89 
C80   H128 
C80   N233 
C81   C88 
C81   H129 
C81   N232 
C82   C91 
C82   H130 
C82   N235 
C83   C90 
C83   H131 
C83   N234 
C84   C93 
C84   H132 
C84   N237 
C85   C92 
C85   H133 
C85   N236 
C86   C95 
C86   H134 
C86   N239 
C87   C94 
C87   H135 
C87   N238 
C88   H136 
C88   N202 
C89   H137 
C89   N203 
C90   H138 
C90   N200 
C91   H139 
C91   N201 
C92   H140 
C92   N206 
C93   H141 
C93   N207 
C94   H142 
C94   N204 
C95   H143 
C95   N205 
N192   Zn256 
N193   Zn257 
N194   Zn258 
N195   Zn259 
N196   Zn260 
N197   Zn261 
N198   Zn262 
N199   Zn263 
N200   Zn258 
N201   Zn259 
N202   Zn256 
N203   Zn257 
N204   Zn262 
N205   Zn263 
N206   Zn260 
N207   Zn261 
N208   Zn258 
N209   Zn259 
N210   Zn256 
N211   Zn257 
N212   Zn262 
N213   Zn263 
N214   Zn260 
N215   Zn261 
N216   Zn271 
N217   Zn270 
N218   Zn269 
N219   Zn268 
N220   Zn267 
N221   Zn266 
N222   Zn265 
N223   Zn264 
N224   Zn257 
N225   Zn256 
N226   Zn259 
N227   Zn258 
N228   Zn261 
N229   Zn260 
N230   Zn263 
N231   Zn262 
N232   Zn271 
N233   Zn270 
N234   Zn269 
N235   Zn268 
N236   Zn267 
N237   Zn266 
N238   Zn265 
N239   Zn264 
N240   Zn271 
N241   Zn270 
N242   Zn269 
N243   Zn268 
N244   Zn267 
N245   Zn266 
N246   Zn265 
N247   Zn264 
N248   Zn271 
N249   Zn270 
N250   Zn269 
N251   Zn268 
N252   Zn267 
N253   Zn266 
N254   Zn265 
N255   Zn264 
  
#END  
