data_ZIF6
_symmetry_cell_setting           triclinic 
_symmetry_space_group_name_H-M   'P 1' 
_symmetry_Int_Tables_number      1 
loop_ 
_symmetry_equiv_pos_site_id 
_symmetry_equiv_pos_as_xyz 
1 x,y,z 
_cell_length_a             16.843020        
_cell_length_b             16.843020        
_cell_length_c             16.843021        
_cell_angle_alpha         109.791791        
_cell_angle_beta          109.791794        
_cell_angle_gamma         108.831961        
loop_  
_atom_site_label   
_atom_site_type_symbol  
_atom_site_fract_x  
_atom_site_fract_y  
_atom_site_fract_z 
 C0  C    -0.500000      0.352611     -0.147389 
 C1  C     0.000001     -0.352610     -0.352608 
 C2  C    -0.352611     -0.500000     -0.352611 
 C3  C     0.352610     -0.000001     -0.147391 
 C4  C     0.500000     -0.352611      0.147389 
 C5  C    -0.000001      0.352610      0.352608 
 C6  C     0.352611      0.500000      0.352611 
 C7  C    -0.352610      0.000001      0.147391 
 C8  C     0.380070      0.480483     -0.399587 
 C9  C     0.380072     -0.220342     -0.100413 
 C10  C    -0.380072      0.220342      0.100413 
 C11  C    -0.380070     -0.480483      0.399587 
 C12  C    -0.480483     -0.380070     -0.100413 
 C13  C     0.220341     -0.380072     -0.399588 
 C14  C    -0.220341      0.380072      0.399588 
 C15  C     0.480483      0.380070      0.100413 
 C16  C    -0.491651      0.274594     -0.275150 
 C17  C     0.049744     -0.216497     -0.224851 
 C18  C     0.491644      0.216498     -0.233759 
 C19  C    -0.049743     -0.274592     -0.266242 
 C20  C    -0.274596      0.491648     -0.224852 
 C21  C     0.216498     -0.049745     -0.275151 
 C22  C    -0.216499     -0.491647     -0.266242 
 C23  C     0.274593      0.049742     -0.233759 
 C24  C     0.491651     -0.274594      0.275150 
 C25  C    -0.049744      0.216497      0.224851 
 C26  C    -0.491644     -0.216498      0.233759 
 C27  C     0.049743      0.274592      0.266242 
 C28  C     0.274596     -0.491648      0.224852 
 C29  C    -0.216498      0.049745      0.275151 
 C30  C     0.216499      0.491647      0.266242 
 C31  C    -0.274593     -0.049742      0.233759 
 C32  C     0.330857      0.331677     -0.427300 
 C33  C     0.258981     -0.241836     -0.072696 
 C34  C    -0.330861      0.241836      0.000816 
 C35  C    -0.258977     -0.331676      0.499180 
 C36  C    -0.331676     -0.330858     -0.072698 
 C37  C     0.241839     -0.258980     -0.427302 
 C38  C    -0.241839      0.330859      0.499182 
 C39  C     0.331676      0.258978      0.000818 
 C40  C    -0.330857     -0.331677      0.427300 
 C41  C    -0.258981      0.241836      0.072696 
 C42  C     0.330861     -0.241836     -0.000816 
 C43  C     0.258977      0.331676     -0.499180 
 C44  C     0.331676      0.330858      0.072698 
 C45  C    -0.241839      0.258980      0.427302 
 C46  C     0.241839     -0.330859     -0.499182 
 C47  C    -0.331676     -0.258978     -0.000818 
 H48  H    -0.499998      0.409299     -0.090700 
 H49  H     0.000001     -0.409298     -0.409295 
 H50  H    -0.409298     -0.500000     -0.409298 
 H51  H     0.409297     -0.000000     -0.090704 
 H52  H     0.499998     -0.409299      0.090700 
 H53  H    -0.000001      0.409298      0.409295 
 H54  H     0.409298      0.500000      0.409298 
 H55  H    -0.409297      0.000000      0.090704 
 H56  H     0.424604     -0.440601     -0.365205 
 H57  H     0.424604     -0.210193     -0.134797 
 H58  H    -0.424604      0.210193      0.134797 
 H59  H    -0.424604      0.440601      0.365205 
 H60  H     0.440600     -0.424603     -0.134796 
 H61  H     0.210191     -0.424606     -0.365205 
 H62  H    -0.210191      0.424606      0.365205 
 H63  H    -0.440600      0.424603      0.134796 
 H64  H    -0.482047      0.261850     -0.338705 
 H65  H     0.100554     -0.143337     -0.161299 
 H66  H     0.482037      0.143338     -0.256110 
 H67  H    -0.100553     -0.261848     -0.243894 
 H68  H    -0.261852      0.482042     -0.161298 
 H69  H     0.143339     -0.100555     -0.338704 
 H70  H    -0.143340     -0.482041     -0.243893 
 H71  H     0.261849      0.100552     -0.256109 
 H72  H     0.482047     -0.261850      0.338705 
 H73  H    -0.100554      0.143337      0.161299 
 H74  H    -0.482037     -0.143338      0.256110 
 H75  H     0.100553      0.261848      0.243894 
 H76  H     0.261852     -0.482042      0.161298 
 H77  H    -0.143339      0.100555      0.338704 
 H78  H     0.143340      0.482041      0.243893 
 H79  H    -0.261849     -0.100552      0.256109 
 H80  H     0.333366      0.272183     -0.415477 
 H81  H     0.187665     -0.251148     -0.084517 
 H82  H    -0.333370      0.251147     -0.061189 
 H83  H    -0.187660     -0.272182     -0.438817 
 H84  H    -0.272182     -0.333367     -0.084520 
 H85  H     0.251152     -0.187663     -0.415480 
 H86  H    -0.251151      0.333368     -0.438814 
 H87  H     0.272181      0.187662     -0.061186 
 H88  H    -0.333366     -0.272183      0.415477 
 H89  H    -0.187665      0.251148      0.084517 
 H90  H     0.333370     -0.251147      0.061189 
 H91  H     0.187660      0.272182      0.438817 
 H92  H     0.272182      0.333367      0.084520 
 H93  H    -0.251152      0.187663      0.415480 
 H94  H     0.251151     -0.333368      0.438814 
 H95  H    -0.272181     -0.187662      0.061186 
 N96  N    -0.486538      0.360821     -0.219838 
 N97  N     0.080659     -0.266699     -0.280161 
 N98  N     0.486536      0.266699     -0.152643 
 N99  N    -0.080657     -0.360819     -0.347356 
 N100  N    -0.360821      0.486537     -0.280163 
 N101  N     0.266699     -0.080659     -0.219839 
 N102  N    -0.266700     -0.486537     -0.347357 
 N103  N     0.360819      0.080657     -0.152644 
 N104  N     0.486538     -0.360821      0.219838 
 N105  N    -0.080659      0.266699      0.280161 
 N106  N    -0.486536     -0.266699      0.152643 
 N107  N     0.080657      0.360819      0.347356 
 N108  N     0.360821     -0.486537      0.280163 
 N109  N    -0.266699      0.080659      0.219839 
 N110  N     0.266700      0.486537      0.347357 
 N111  N    -0.360819     -0.080657      0.152644 
 N112  N     0.407394      0.426401     -0.364415 
 N113  N     0.290818     -0.228188     -0.135583 
 N114  N    -0.407396      0.228188      0.019005 
 N115  N    -0.290816     -0.426401      0.480993 
 N116  N    -0.426401     -0.407394     -0.135584 
 N117  N     0.228189     -0.290818     -0.364416 
 N118  N    -0.228188      0.407396      0.480994 
 N119  N     0.426401      0.290816      0.019006 
 N120  N    -0.407394     -0.426401      0.364415 
 N121  N    -0.290818      0.228188      0.135583 
 N122  N     0.407396     -0.228188     -0.019005 
 N123  N     0.290816      0.426401     -0.480993 
 N124  N     0.426401      0.407394      0.135584 
 N125  N    -0.228189      0.290818      0.364416 
 N126  N     0.228188     -0.407396     -0.480994 
 N127  N    -0.426401     -0.290816     -0.019006 
 Zn128  Zn    -0.468465      0.468465     -0.250000 
 Zn129  Zn     0.218465     -0.218465     -0.250000 
 Zn130  Zn     0.468464      0.218464     -0.063071 
 Zn131  Zn    -0.218464     -0.468464     -0.436929 
 Zn132  Zn     0.468465     -0.468465      0.250000 
 Zn133  Zn    -0.218465      0.218465      0.250000 
 Zn134  Zn    -0.468464     -0.218464      0.063071 
 Zn135  Zn     0.218464      0.468464      0.436929 
loop_  
_geom_bond_atom_site_label_1  
_geom_bond_atom_site_label_2  
C0   H48 
C0   N96 
C0   N98 
C1   H49 
C1   N97 
C1   N99 
C2   H50 
C2   N100 
C2   N102 
C3   H51 
C3   N101 
C3   N103 
C4   H52 
C4   N104 
C4   N106 
C5   H53 
C5   N105 
C5   N107 
C6   H54 
C6   N108 
C6   N110 
C7   H55 
C7   N109 
C7   N111 
C8   H56 
C8   N112 
C8   N123 
C9   H57 
C9   N113 
C9   N122 
C10   H58 
C10   N114 
C10   N121 
C11   H59 
C11   N115 
C11   N120 
C12   H60 
C12   N116 
C12   N127 
C13   H61 
C13   N117 
C13   N126 
C14   H62 
C14   N118 
C14   N125 
C15   H63 
C15   N119 
C15   N124 
C16   C18 
C16   H64 
C16   N96 
C17   C19 
C17   H65 
C17   N97 
C18   H66 
C18   N98 
C19   H67 
C19   N99 
C20   C22 
C20   H68 
C20   N100 
C21   C23 
C21   H69 
C21   N101 
C22   H70 
C22   N102 
C23   H71 
C23   N103 
C24   C26 
C24   H72 
C24   N104 
C25   C27 
C25   H73 
C25   N105 
C26   H74 
C26   N106 
C27   H75 
C27   N107 
C28   C30 
C28   H76 
C28   N108 
C29   C31 
C29   H77 
C29   N109 
C30   H78 
C30   N110 
C31   H79 
C31   N111 
C32   C43 
C32   H80 
C32   N112 
C33   C42 
C33   H81 
C33   N113 
C34   C41 
C34   H82 
C34   N114 
C35   C40 
C35   H83 
C35   N115 
C36   C47 
C36   H84 
C36   N116 
C37   C46 
C37   H85 
C37   N117 
C38   C45 
C38   H86 
C38   N118 
C39   C44 
C39   H87 
C39   N119 
C40   H88 
C40   N120 
C41   H89 
C41   N121 
C42   H90 
C42   N122 
C43   H91 
C43   N123 
C44   H92 
C44   N124 
C45   H93 
C45   N125 
C46   H94 
C46   N126 
C47   H95 
C47   N127 
N96   Zn128 
N97   Zn129 
N98   Zn130 
N99   Zn131 
N100   Zn128 
N101   Zn129 
N102   Zn131 
N103   Zn130 
N104   Zn132 
N105   Zn133 
N106   Zn134 
N107   Zn135 
N108   Zn132 
N109   Zn133 
N110   Zn135 
N111   Zn134 
N112   Zn128 
N113   Zn129 
N114   Zn130 
N115   Zn131 
N116   Zn128 
N117   Zn129 
N118   Zn131 
N119   Zn130 
N120   Zn132 
N121   Zn133 
N122   Zn134 
N123   Zn135 
N124   Zn132 
N125   Zn133 
N126   Zn135 
N127   Zn134 
  
#END  
