data_ZIF77
_symmetry_cell_setting           triclinic 
_symmetry_space_group_name_H-M   'P 1' 
_symmetry_Int_Tables_number      1 
loop_ 
_symmetry_equiv_pos_site_id 
_symmetry_equiv_pos_as_xyz 
1 x,y,z 
_cell_length_a             11.248998        
_cell_length_b             17.612876        
_cell_length_c             17.612875        
_cell_angle_alpha          78.415436        
_cell_angle_beta           71.376973        
_cell_angle_gamma          71.376973        
loop_  
_atom_site_label   
_atom_site_type_symbol  
_atom_site_fract_x  
_atom_site_fract_y  
_atom_site_fract_z 
 C0  C     0.289827     -0.158560     -0.131194 
 C1  C    -0.000061     -0.131195     -0.158550 
 C2  C     0.210172     -0.368806     -0.341440 
 C3  C    -0.499940     -0.341450     -0.368805 
 C4  C    -0.289827      0.158560      0.131194 
 C5  C     0.000061      0.131195      0.158550 
 C6  C    -0.210172      0.368806      0.341440 
 C7  C     0.499940      0.341450      0.368805 
 C8  C     0.320470     -0.176068     -0.056678 
 C9  C    -0.087707     -0.056677     -0.176059 
 C10  C     0.179530     -0.443322     -0.323932 
 C11  C    -0.412293     -0.323941     -0.443323 
 C12  C    -0.320470      0.176068      0.056678 
 C13  C     0.087707      0.056677      0.176059 
 C14  C    -0.179530      0.443322      0.323932 
 C15  C     0.412293      0.323941      0.443323 
 C16  C     0.354107     -0.287374     -0.103167 
 C17  C     0.036436     -0.103175     -0.287364 
 C18  C     0.145893     -0.396833     -0.212626 
 C19  C     0.463564     -0.212636     -0.396825 
 C20  C    -0.354107      0.287373      0.103168 
 C21  C    -0.036436      0.103174      0.287364 
 C22  C    -0.145893      0.396833      0.212626 
 C23  C    -0.463564      0.212636      0.396825 
 C24  C     0.246409     -0.195400      0.195403 
 C25  C    -0.246409      0.195400     -0.195403 
 C26  C     0.253591      0.304597     -0.304600 
 C27  C    -0.253591     -0.304597      0.304600 
 C28  C     0.151178     -0.290448      0.233805 
 C29  C    -0.094528      0.233804     -0.290445 
 C30  C     0.348822      0.266195     -0.209552 
 C31  C    -0.405472     -0.209555      0.266196 
 C32  C    -0.151178      0.290447     -0.233805 
 C33  C     0.094528     -0.233804      0.290445 
 C34  C    -0.348822     -0.266195      0.209552 
 C35  C     0.405472      0.209555     -0.266196 
 C36  C     0.094654     -0.370012      0.093925 
 C37  C     0.181446      0.093923     -0.370013 
 C38  C     0.405346      0.406075     -0.129987 
 C39  C     0.318554     -0.129987      0.406077 
 C40  C    -0.094654      0.370012     -0.093925 
 C41  C    -0.181446     -0.093923      0.370013 
 C42  C    -0.405346     -0.406075      0.129988 
 C43  C    -0.318554      0.129987     -0.406077 
 C44  C     0.137634     -0.495465      0.141718 
 C45  C     0.216123      0.141716     -0.495466 
 C46  C     0.362366      0.358281     -0.004534 
 C47  C     0.283876     -0.004534      0.358285 
 C48  C    -0.137634      0.495465     -0.141718 
 C49  C    -0.216123     -0.141716      0.495466 
 C50  C    -0.362366     -0.358281      0.004534 
 C51  C    -0.283876      0.004534     -0.358285 
 C52  C     0.253513     -0.471607      0.116230 
 C53  C     0.101877      0.116225     -0.471608 
 C54  C     0.246487      0.383769     -0.028393 
 C55  C     0.398123     -0.028393      0.383776 
 C56  C    -0.253513      0.471607     -0.116230 
 C57  C    -0.101877     -0.116225      0.471608 
 C58  C    -0.246487     -0.383769      0.028393 
 C59  C    -0.398123      0.028393     -0.383776 
 H60  H     0.254232     -0.100158     -0.164399 
 H61  H     0.010340     -0.164398     -0.100148 
 H62  H     0.245767     -0.335601     -0.399842 
 H63  H     0.489660     -0.399852     -0.335602 
 H64  H    -0.254232      0.100158      0.164399 
 H65  H    -0.010340      0.164398      0.100148 
 H66  H    -0.245767      0.335601      0.399842 
 H67  H    -0.489660      0.399852      0.335602 
 H68  H     0.315804     -0.135169     -0.015816 
 H69  H    -0.164793     -0.015811     -0.135161 
 H70  H     0.184195     -0.484184     -0.364830 
 H71  H    -0.335207     -0.364839     -0.484189 
 H72  H    -0.315804      0.135169      0.015816 
 H73  H     0.164793      0.015811      0.135161 
 H74  H    -0.184195      0.484184      0.364830 
 H75  H     0.335207      0.364839      0.484189 
 H76  H     0.129864     -0.347327      0.235375 
 H77  H    -0.017898      0.235374     -0.347322 
 H78  H     0.370137      0.264625     -0.152673 
 H79  H    -0.482102     -0.152678      0.264626 
 H80  H    -0.129864      0.347327     -0.235375 
 H81  H     0.017898     -0.235374      0.347322 
 H82  H    -0.370137     -0.264625      0.152673 
 H83  H     0.482102      0.152678     -0.264626 
 H84  H     0.120041      0.446414      0.170278 
 H85  H     0.263274      0.170278      0.446413 
 H86  H     0.379959      0.329720      0.053586 
 H87  H     0.236726      0.053587      0.329724 
 H88  H    -0.120041     -0.446414     -0.170278 
 H89  H    -0.263274     -0.170278     -0.446413 
 H90  H    -0.379959     -0.329720     -0.053586 
 H91  H    -0.236725     -0.053587     -0.329724 
 H92  H     0.353521      0.494213      0.116853 
 H93  H     0.035426      0.116846      0.494213 
 H94  H     0.146479      0.383146      0.005787 
 H95  H     0.464573      0.005787      0.383155 
 H96  H    -0.353522     -0.494213     -0.116853 
 H97  H    -0.035426     -0.116846     -0.494213 
 H98  H    -0.146479     -0.383146     -0.005787 
 H99  H    -0.464573     -0.005787     -0.383155 
 N100  N     0.310982     -0.229953     -0.159649 
 N101  N     0.078624     -0.159655     -0.229943 
 N102  N     0.189018     -0.340351     -0.270047 
 N103  N     0.421376     -0.270057     -0.340345 
 N104  N    -0.310982      0.229953      0.159649 
 N105  N    -0.078624      0.159655      0.229943 
 N106  N    -0.189018      0.340351      0.270047 
 N107  N    -0.421376      0.270057      0.340345 
 N108  N     0.360833     -0.258037     -0.039180 
 N109  N    -0.063606     -0.039184     -0.258028 
 N110  N     0.139166     -0.460820     -0.241963 
 N111  N    -0.436394     -0.241972     -0.460816 
 N112  N    -0.360833      0.258037      0.039181 
 N113  N     0.063606      0.039184      0.258028 
 N114  N    -0.139167      0.460820      0.241963 
 N115  N     0.436394      0.241972      0.460816 
 N116  N     0.396825     -0.370948     -0.113245 
 N117  N     0.087360     -0.113258     -0.370937 
 N118  N     0.103175     -0.386755     -0.129051 
 N119  N     0.412640     -0.129063     -0.386742 
 N120  N    -0.396825      0.370948      0.113245 
 N121  N    -0.087360      0.113258      0.370938 
 N122  N    -0.103175      0.386755      0.129051 
 N123  N    -0.412640      0.129063      0.386742 
 N124  N     0.247031     -0.265314      0.173308 
 N125  N    -0.155009      0.173304     -0.265314 
 N126  N     0.252969      0.326692     -0.234686 
 N127  N    -0.344991     -0.234686      0.326696 
 N128  N    -0.247031      0.265314     -0.173308 
 N129  N     0.155009     -0.173304      0.265314 
 N130  N    -0.252969     -0.326692      0.234686 
 N131  N     0.344991      0.234686     -0.326696 
 N132  N     0.341171     -0.153038      0.153049 
 N133  N    -0.341171      0.153038     -0.153049 
 N134  N     0.158829      0.346952     -0.346962 
 N135  N    -0.158829     -0.346952      0.346962 
 N136  N     0.225050     -0.391631      0.086591 
 N137  N     0.080005      0.086585     -0.391632 
 N138  N     0.274949      0.413409     -0.108369 
 N139  N     0.419995     -0.108369      0.413416 
 N140  N    -0.225051      0.391631     -0.086591 
 N141  N    -0.080005     -0.086585      0.391632 
 N142  N    -0.274949     -0.413409      0.108369 
 N143  N    -0.419995      0.108369     -0.413416 
 N144  N     0.037588     -0.430709      0.127271 
 N145  N     0.265860      0.127271     -0.430711 
 N146  N     0.462412      0.372728     -0.069290 
 N147  N     0.234140     -0.069290      0.372729 
 N148  N    -0.037588      0.430709     -0.127271 
 N149  N    -0.265860     -0.127272      0.430711 
 N150  N    -0.462412     -0.372729      0.069290 
 N151  N    -0.234140      0.069290     -0.372729 
 N152  N     0.023587     -0.291546      0.066787 
 N153  N     0.201182      0.066788     -0.291546 
 N154  N     0.476412      0.433213     -0.208453 
 N155  N     0.298819     -0.208454      0.433211 
 N156  N    -0.023587      0.291546     -0.066787 
 N157  N    -0.201182     -0.066788      0.291546 
 N158  N    -0.476412     -0.433213      0.208453 
 N159  N    -0.298819      0.208454     -0.433211 
 O160  O     0.389104     -0.391691     -0.175841 
 O161  O     0.178418     -0.175855     -0.391679 
 O162  O     0.110896     -0.324159     -0.108309 
 O163  O     0.321582     -0.108321     -0.324145 
 O164  O    -0.389104      0.391691      0.175841 
 O165  O    -0.178418      0.175855      0.391679 
 O166  O    -0.110896      0.324159      0.108309 
 O167  O    -0.321582      0.108321      0.324145 
 O168  O     0.442556     -0.420194     -0.060015 
 O169  O     0.037636     -0.060032     -0.420183 
 O170  O     0.057444     -0.439985     -0.079806 
 O171  O     0.462364     -0.079817     -0.439968 
 O172  O    -0.442556      0.420194      0.060015 
 O173  O    -0.037636      0.060032      0.420183 
 O174  O    -0.057444      0.439985      0.079806 
 O175  O    -0.462364      0.079817      0.439968 
 O176  O     0.081698     -0.237099      0.043044 
 O177  O     0.112370      0.043040     -0.237101 
 O178  O     0.418301      0.456956     -0.262900 
 O179  O     0.387630     -0.262900      0.456959 
 O180  O    -0.081698      0.237099     -0.043044 
 O181  O    -0.112370     -0.043040      0.237101 
 O182  O    -0.418301     -0.456956      0.262900 
 O183  O    -0.387630      0.262900     -0.456959 
 O184  O     0.426481     -0.180674      0.090964 
 O185  O    -0.336725      0.090944     -0.180685 
 O186  O     0.073519      0.409036     -0.319325 
 O187  O    -0.163275     -0.319315      0.409056 
 O188  O    -0.426481      0.180674     -0.090964 
 O189  O     0.336724     -0.090944      0.180685 
 O190  O    -0.073519     -0.409036      0.319325 
 O191  O     0.163275      0.319315     -0.409056 
 O192  O    -0.092706     -0.281631      0.067670 
 O193  O     0.306671      0.067680     -0.281629 
 O194  O    -0.407295      0.432330     -0.218368 
 O195  O     0.193330     -0.218371      0.432320 
 O196  O     0.092706      0.281631     -0.067670 
 O197  O    -0.306671     -0.067680      0.281629 
 O198  O     0.407294     -0.432331      0.218368 
 O199  O    -0.193330      0.218371     -0.432320 
 Zn200  Zn     0.348358     -0.323052      0.071866 
 Zn201  Zn    -0.097160      0.071861     -0.323050 
 Zn202  Zn     0.151642      0.428133     -0.176948 
 Zn203  Zn    -0.402840     -0.176951      0.428139 
 Zn204  Zn    -0.348358      0.323052     -0.071866 
 Zn205  Zn     0.097160     -0.071861      0.323050 
 Zn206  Zn    -0.151642     -0.428134      0.176948 
 Zn207  Zn     0.402840      0.176951     -0.428139 
 Zn208  Zn     0.250000     -0.250004     -0.249996 
 Zn209  Zn    -0.250000      0.250004      0.249996 
loop_  
_geom_bond_atom_site_label_1  
_geom_bond_atom_site_label_2  
C0   C8 
C0   H60 
C0   N100 
C1   C9 
C1   H61 
C1   N101 
C2   C10 
C2   H62 
C2   N102 
C3   C11 
C3   H63 
C3   N103 
C4   C12 
C4   H64 
C4   N104 
C5   C13 
C5   H65 
C5   N105 
C6   C14 
C6   H66 
C6   N106 
C7   C15 
C7   H67 
C7   N107 
C8   H68 
C8   N108 
C9   H69 
C9   N109 
C10   H70 
C10   N110 
C11   H71 
C11   N111 
C12   H72 
C12   N112 
C13   H73 
C13   N113 
C14   H74 
C14   N114 
C15   H75 
C15   N115 
C16   N100 
C16   N108 
C16   N116 
C17   N101 
C17   N109 
C17   N117 
C18   N102 
C18   N110 
C18   N118 
C19   N103 
C19   N111 
C19   N119 
C20   N104 
C20   N112 
C20   N120 
C21   N105 
C21   N113 
C21   N121 
C22   N106 
C22   N114 
C22   N122 
C23   N107 
C23   N115 
C23   N123 
C24   N124 
C24   N129 
C24   N132 
C25   N125 
C25   N128 
C25   N133 
C26   N126 
C26   N131 
C26   N134 
C27   N127 
C27   N130 
C27   N135 
C28   C33 
C28   H76 
C28   N124 
C29   C32 
C29   H77 
C29   N125 
C30   C35 
C30   H78 
C30   N126 
C31   C34 
C31   H79 
C31   N127 
C32   H80 
C32   N128 
C33   H81 
C33   N129 
C34   H82 
C34   N130 
C35   H83 
C35   N131 
C36   N136 
C36   N144 
C36   N152 
C37   N137 
C37   N145 
C37   N153 
C38   N138 
C38   N146 
C38   N154 
C39   N139 
C39   N147 
C39   N155 
C40   N140 
C40   N148 
C40   N156 
C41   N141 
C41   N149 
C41   N157 
C42   N142 
C42   N150 
C42   N158 
C43   N143 
C43   N151 
C43   N159 
C44   C52 
C44   H84 
C44   N144 
C45   C53 
C45   H85 
C45   N145 
C46   C54 
C46   H86 
C46   N146 
C47   C55 
C47   H87 
C47   N147 
C48   C56 
C48   H88 
C48   N148 
C49   C57 
C49   H89 
C49   N149 
C50   C58 
C50   H90 
C50   N150 
C51   C59 
C51   H91 
C51   N151 
C52   H92 
C52   N136 
C53   H93 
C53   N137 
C54   H94 
C54   N138 
C55   H95 
C55   N139 
C56   H96 
C56   N140 
C57   H97 
C57   N141 
C58   H98 
C58   N142 
C59   H99 
C59   N143 
N100   Zn208 
N101   Zn208 
N102   Zn208 
N103   Zn208 
N104   Zn209 
N105   Zn209 
N106   Zn209 
N107   Zn209 
N108   Zn200 
N109   Zn201 
N110   Zn202 
N111   Zn203 
N112   Zn204 
N113   Zn205 
N114   Zn206 
N115   Zn207 
N116   O160 
N116   O168 
N117   O161 
N117   O169 
N118   O162 
N118   O170 
N119   O163 
N119   O171 
N120   O164 
N120   O172 
N121   O165 
N121   O173 
N122   O166 
N122   O174 
N123   O167 
N123   O175 
N124   Zn200 
N125   Zn201 
N126   Zn202 
N127   Zn203 
N128   Zn204 
N129   Zn205 
N130   Zn206 
N131   Zn207 
N132   O184 
N132   O189 
N133   O185 
N133   O188 
N134   O186 
N134   O191 
N135   O187 
N135   O190 
N136   Zn200 
N137   Zn201 
N138   Zn202 
N139   Zn203 
N140   Zn204 
N141   Zn205 
N142   Zn206 
N143   Zn207 
N144   Zn206 
N145   Zn207 
N146   Zn204 
N147   Zn205 
N148   Zn202 
N149   Zn203 
N150   Zn200 
N151   Zn201 
N152   O176 
N152   O192 
N153   O177 
N153   O193 
N154   O178 
N154   O194 
N155   O179 
N155   O195 
N156   O180 
N156   O196 
N157   O181 
N157   O197 
N158   O182 
N158   O198 
N159   O183 
N159   O199 
  
#END  
