data_ZIF8_CH3
_symmetry_cell_setting           triclinic 
_symmetry_space_group_name_H-M   'P 1' 
_symmetry_Int_Tables_number      1 
loop_ 
_symmetry_equiv_pos_site_id 
_symmetry_equiv_pos_as_xyz 
1 x,y,z 
_cell_length_a             14.747666        
_cell_length_b             14.747666        
_cell_length_c             14.747666        
_cell_angle_alpha         109.471218        
_cell_angle_beta          109.471222        
_cell_angle_gamma         109.471222        
loop_  
_atom_site_label   
_atom_site_type_symbol  
_atom_site_fract_x  
_atom_site_fract_y  
_atom_site_fract_z 
 C0  C    -0.480010      0.310877     -0.426018 
 C1  C     0.262194      0.200855     -0.321191 
 C2  C     0.473990      0.050967     -0.212129 
 C3  C    -0.268230      0.413590     -0.064356 
 C4  C    -0.266109     -0.055454      0.421552 
 C5  C     0.474949     -0.205351      0.059868 
 C6  C     0.260096     -0.315363      0.207642 
 C7  C    -0.480953     -0.418088      0.316708 
 C8  C    -0.056231      0.421535     -0.265338 
 C9  C     0.315931     -0.480201     -0.418079 
 C10  C     0.050214     -0.212128      0.474757 
 C11  C    -0.321942      0.262971      0.200866 
 C12  C    -0.316116      0.207645      0.260864 
 C13  C     0.059093      0.475702     -0.205341 
 C14  C     0.310101     -0.426038     -0.479239 
 C15  C    -0.065109     -0.267453      0.413601 
 C16  C     0.206867      0.260852     -0.315361 
 C17  C    -0.426785     -0.479244      0.310877 
 C18  C    -0.206115      0.059870      0.475716 
 C19  C     0.420777     -0.265349     -0.055455 
 C20  C     0.200098     -0.321194      0.262967 
 C21  C    -0.212900      0.474751      0.050967 
 C22  C    -0.418853      0.316708     -0.480185 
 C23  C     0.412839     -0.064357     -0.267456 
 C24  C    -0.372255      0.242265     -0.378420 
 C25  C     0.383234      0.377063     -0.246752 
 C26  C     0.366227     -0.009190     -0.388494 
 C27  C    -0.389261      0.366984     -0.009180 
 C28  C    -0.382321      0.004696      0.373930 
 C29  C     0.373170     -0.381556      0.004703 
 C30  C     0.376303     -0.246770      0.384005 
 C31  C    -0.379172     -0.371474      0.242283 
 C32  C     0.003925      0.373932     -0.381549 
 C33  C     0.241507     -0.378417     -0.371471 
 C34  C    -0.009943     -0.388492      0.366989 
 C35  C    -0.247520      0.384009      0.377071 
 C36  C    -0.321347      0.184957     -0.329796 
 C37  C     0.491449      0.482996     -0.189445 
 C38  C     0.315313     -0.011473     -0.496709 
 C39  C    -0.497473      0.316070     -0.011457 
 C40  C    -0.488254      0.006974      0.325292 
 C41  C     0.324540     -0.487487      0.006988 
 C42  C     0.482234     -0.189472      0.492220 
 C43  C    -0.330538     -0.320557      0.184986 
 C44  C     0.006207      0.325306     -0.487481 
 C45  C     0.184211     -0.329780     -0.320557 
 C46  C    -0.012226     -0.496707      0.316073 
 C47  C    -0.190221      0.492224      0.483002 
 H48  H    -0.225185     -0.454124      0.470938 
 H49  H    -0.075018      0.250849      0.445800 
 H50  H     0.219163     -0.306893     -0.231945 
 H51  H    -0.077950      0.449636      0.227460 
 H52  H     0.250090      0.445792     -0.074241 
 H53  H     0.470168     -0.224429     -0.454124 
 H54  H    -0.307642     -0.231942      0.219948 
 H55  H     0.445027     -0.074259      0.250846 
 H56  H     0.448869      0.227457     -0.077180 
 H57  H    -0.232732      0.219914     -0.306899 
 H58  H     0.476942     -0.450286     -0.197184 
 H59  H     0.226700     -0.077196      0.449632 
 H60  H    -0.100211     -0.460619     -0.488079 
 H61  H     0.024422      0.386392      0.483591 
 H62  H     0.094197     -0.390862     -0.363420 
 H63  H     0.069001     -0.482198      0.322848 
 H64  H     0.071937      0.302426     -0.475416 
 H65  H     0.191951     -0.255325     -0.327330 
 H66  H    -0.030451      0.456142      0.358934 
 H67  H    -0.197943      0.477715     -0.450276 
 H68  H     0.301647     -0.475421      0.072709 
 H69  H    -0.451046     -0.197205      0.477711 
 H70  H    -0.391625     -0.363412      0.094975 
 H71  H     0.482822      0.025211      0.386379 
 H72  H     0.455375      0.358931     -0.029679 
 H73  H    -0.328131      0.192679     -0.255350 
 H74  H    -0.454886      0.470930     -0.224390 
 H75  H     0.322090      0.069755     -0.482200 
 H76  H     0.358175     -0.029699      0.456140 
 H77  H    -0.488840     -0.099460     -0.460628 
 H78  H    -0.256089     -0.327338      0.192714 
 H79  H    -0.476191      0.072689      0.302390 
 H80  H     0.385628      0.483590      0.025217 
 H81  H    -0.364207      0.094947     -0.390890 
 H82  H    -0.461409     -0.488077     -0.099431 
 H83  H    -0.482959      0.322846      0.069772 
 H84  H     0.456916      0.335215     -0.428939 
 H85  H     0.231469      0.111909     -0.351841 
 H86  H    -0.462933      0.111121     -0.124718 
 H87  H    -0.237509      0.413665     -0.122580 
 H88  H    -0.238849     -0.115604      0.424485 
 H89  H    -0.466749     -0.116406      0.118088 
 H90  H     0.232839     -0.339692      0.120231 
 H91  H     0.460745     -0.418169      0.347351 
 H92  H    -0.116384      0.424458     -0.238079 
 H93  H     0.346574      0.461498     -0.418156 
 H94  H     0.110368     -0.124717     -0.462162 
 H95  H    -0.352584      0.232246      0.111921 
 H96  H    -0.340447      0.120234      0.233607 
 H97  H     0.117314     -0.466001     -0.116395 
 H98  H     0.334431     -0.428969      0.457680 
 H99  H    -0.123330     -0.236729      0.413682 
 H100  H     0.119455      0.233593     -0.339698 
 H101  H    -0.429713      0.457675      0.335206 
 H102  H    -0.117170      0.118093     -0.465981 
 H103  H     0.423700     -0.238092     -0.115610 
 H104  H     0.111153     -0.351837      0.232243 
 H105  H    -0.125488     -0.462168      0.111117 
 H106  H    -0.418927      0.347359      0.461520 
 H107  H     0.412921     -0.122577     -0.236731 
 N108  N    -0.449820      0.264125     -0.361641 
 N109  N     0.373347      0.274709     -0.278166 
 N110  N     0.443791      0.085154     -0.289070 
 N111  N    -0.379380      0.345455     -0.101651 
 N112  N    -0.377237     -0.089646      0.357162 
 N113  N     0.444116     -0.279202      0.097170 
 N114  N     0.371223     -0.268623      0.284582 
 N115  N    -0.450116     -0.349951      0.273693 
 N116  N    -0.090419      0.357155     -0.376467 
 N117  N     0.272917     -0.449360     -0.349943 
 N118  N     0.084401     -0.289068      0.444559 
 N119  N    -0.278926      0.374123      0.274717 
 N120  N    -0.269377      0.284585      0.371991 
 N121  N     0.096392      0.444872     -0.279195 
 N122  N     0.263361     -0.361649     -0.449044 
 N123  N    -0.102410     -0.378605      0.345466 
 N124  N     0.283808      0.371981     -0.268611 
 N125  N    -0.362398     -0.449044      0.264137 
 N126  N    -0.279969      0.097165      0.444873 
 N127  N     0.356391     -0.376476     -0.089642 
 N128  N     0.273949     -0.278180      0.374119 
 N129  N    -0.289836      0.444556      0.085160 
 N130  N    -0.350726      0.273681     -0.449358 
 N131  N     0.344706     -0.101657     -0.378608 
 Zn132  Zn     0.496982      0.241210     -0.258783 
 Zn133  Zn     0.496998     -0.245704      0.254302 
 Zn134  Zn    -0.246475      0.254298      0.497760 
 Zn135  Zn     0.253525      0.497754     -0.245697 
 Zn136  Zn     0.240455     -0.258790      0.497756 
 Zn137  Zn    -0.259542      0.497757      0.241219 
loop_  
_geom_bond_atom_site_label_1  
_geom_bond_atom_site_label_2  
C0   C22 
C0   H84 
C0   N108 
C1   C16 
C1   H85 
C1   N109 
C2   C23 
C2   H86 
C2   N110 
C3   C21 
C3   H87 
C3   N111 
C4   C18 
C4   H88 
C4   N112 
C5   C19 
C5   H89 
C5   N113 
C6   C20 
C6   H90 
C6   N114 
C7   C17 
C7   H91 
C7   N115 
C8   C13 
C8   H92 
C8   N116 
C9   C14 
C9   H93 
C9   N117 
C10   C15 
C10   H94 
C10   N118 
C11   C12 
C11   H95 
C11   N119 
C12   H96 
C12   N120 
C13   H97 
C13   N121 
C14   H98 
C14   N122 
C15   H99 
C15   N123 
C16   H100 
C16   N124 
C17   H101 
C17   N125 
C18   H102 
C18   N126 
C19   H103 
C19   N127 
C20   H104 
C20   N128 
C21   H105 
C21   N129 
C22   H106 
C22   N130 
C23   H107 
C23   N131 
C24   C36 
C24   N108 
C24   N130 
C25   C37 
C25   N109 
C25   N124 
C26   C38 
C26   N110 
C26   N131 
C27   C39 
C27   N111 
C27   N129 
C28   C40 
C28   N112 
C28   N126 
C29   C41 
C29   N113 
C29   N127 
C30   C42 
C30   N114 
C30   N128 
C31   C43 
C31   N115 
C31   N125 
C32   C44 
C32   N116 
C32   N121 
C33   C45 
C33   N117 
C33   N122 
C34   C46 
C34   N118 
C34   N123 
C35   C47 
C35   N119 
C35   N120 
C36   H57 
C36   H73 
C36   H81 
C37   H58 
C37   H74 
C37   H82 
C38   H59 
C38   H75 
C38   H76 
C39   H56 
C39   H72 
C39   H83 
C40   H55 
C40   H71 
C40   H79 
C41   H52 
C41   H68 
C41   H80 
C42   H53 
C42   H69 
C42   H77 
C43   H54 
C43   H70 
C43   H78 
C44   H49 
C44   H61 
C44   H64 
C45   H50 
C45   H62 
C45   H65 
C46   H51 
C46   H63 
C46   H66 
C47   H48 
C47   H60 
C47   H67 
N108   Zn132 
N109   Zn132 
N110   Zn132 
N111   Zn132 
N112   Zn133 
N113   Zn133 
N114   Zn133 
N115   Zn133 
N116   Zn134 
N117   Zn135 
N118   Zn136 
N119   Zn137 
N120   Zn134 
N121   Zn135 
N122   Zn136 
N123   Zn137 
N124   Zn135 
N125   Zn137 
N126   Zn134 
N127   Zn135 
N128   Zn136 
N129   Zn137 
N130   Zn134 
N131   Zn136 
  
#END  
