data_ZIF8_H
_symmetry_cell_setting           triclinic 
_symmetry_space_group_name_H-M   'P 1' 
_symmetry_Int_Tables_number      1 
loop_ 
_symmetry_equiv_pos_site_id 
_symmetry_equiv_pos_as_xyz 
1 x,y,z 
_cell_length_a             14.697000        
_cell_length_b             14.697505        
_cell_length_c             14.696849        
_cell_angle_alpha         109.470871        
_cell_angle_beta          109.471428        
_cell_angle_gamma         109.470525        
loop_  
_atom_site_label   
_atom_site_type_symbol  
_atom_site_fract_x  
_atom_site_fract_y  
_atom_site_fract_z 
 Zn0  Zn     0.497620      0.250821     -0.253072 
 Zn1  Zn     0.497573     -0.249889      0.247581 
 Zn2  Zn    -0.252451     -0.499201      0.246879 
 Zn3  Zn     0.246923     -0.250599      0.496203 
 Zn4  Zn     0.246887      0.499433     -0.253820 
 Zn5  Zn    -0.252437      0.250122      0.497569 
 C6  C    -0.261046      0.338123     -0.203395 
 C7  C    -0.480270     -0.057935      0.201572 
 C8  C     0.261799      0.058168     -0.428471 
 C9  C     0.458554     -0.338112      0.400102 
 C10  C    -0.203358     -0.258551      0.334311 
 C11  C     0.315999     -0.204360     -0.265624 
 C12  C     0.401774      0.462637     -0.340172 
 C13  C    -0.060788      0.200480     -0.465507 
 C14  C     0.203539     -0.483032     -0.061172 
 C15  C     0.055328     -0.403918      0.255603 
 C16  C    -0.421501      0.262629      0.054956 
 C17  C    -0.313314      0.425197      0.480058 
 C18  C     0.315999     -0.262415     -0.207582 
 C19  C    -0.060768     -0.462360      0.197308 
 C20  C     0.055308      0.258766     -0.407052 
 C21  C    -0.313308      0.483272      0.422020 
 C22  C    -0.261163     -0.200260      0.334145 
 C23  C    -0.203242      0.338276     -0.261687 
 C24  C     0.459423      0.404190     -0.340327 
 C25  C    -0.479549      0.204574     -0.061143 
 C26  C     0.203743     -0.057941     -0.486529 
 C27  C    -0.422220      0.058159      0.259622 
 C28  C     0.261605     -0.424953      0.054944 
 C29  C     0.400898     -0.337968      0.458543 
 C30  C    -0.381972      0.236461     -0.381910 
 C31  C    -0.385186      0.000110      0.379166 
 C32  C     0.379602      0.000112     -0.381342 
 C33  C     0.381708     -0.236228      0.381773 
 C34  C    -0.382099     -0.378772      0.233231 
 C35  C     0.232455     -0.382057     -0.385294 
 C36  C     0.381452      0.384734     -0.239551 
 C37  C    -0.003201      0.378995     -0.387897 
 C38  C     0.379455     -0.378138     -0.003137 
 C39  C    -0.003190     -0.384535      0.375832 
 C40  C    -0.385403      0.382273     -0.003109 
 C41  C    -0.242317      0.378353      0.375129 
 N42  N    -0.374385      0.273231     -0.280378 
 N43  N    -0.456263     -0.094016      0.278134 
 N44  N     0.373318      0.094219     -0.361928 
 N45  N     0.445938     -0.273253      0.351735 
 N46  N    -0.280837     -0.371779      0.269980 
 N47  N     0.262783     -0.280983     -0.378343 
 N48  N     0.352650      0.449873     -0.275946 
 N49  N    -0.097145      0.277468     -0.452936 
 N50  N     0.279037     -0.452743     -0.097238 
 N51  N     0.091079     -0.354876      0.368838 
 N52  N    -0.362012      0.375339      0.091028 
 N53  N    -0.268135      0.358825      0.449720 
 N54  N     0.262782     -0.375124     -0.284224 
 N55  N    -0.097129     -0.449643      0.274297 
 N56  N     0.091065      0.371995     -0.358147 
 N57  N    -0.268124      0.452964      0.355641 
 N58  N    -0.374509     -0.277243      0.269724 
 N59  N    -0.280713      0.273468     -0.374916 
 N60  N     0.446084      0.355099     -0.276183 
 N61  N    -0.456142      0.281199     -0.097235 
 N62  N     0.279210     -0.093994     -0.456039 
 N63  N    -0.362131      0.094238      0.372265 
 N64  N     0.373160     -0.358597      0.090982 
 N65  N     0.352495     -0.273033      0.446502 
 H66  H    -0.230343      0.378218     -0.113500 
 H67  H     0.462766     -0.117386      0.112256 
 H68  H     0.232890      0.117733     -0.430136 
 H69  H    -0.492198     -0.378642      0.389767 
 H70  H    -0.113556     -0.228359      0.374513 
 H71  H     0.348759     -0.114991     -0.235694 
 H72  H     0.392844     -0.487096     -0.379811 
 H73  H    -0.119983      0.110578      0.484399 
 H74  H     0.115025      0.455821     -0.120728 
 H75  H     0.114943     -0.394008      0.225416 
 H76  H    -0.418647      0.232713      0.114411 
 H77  H    -0.340686      0.426757     -0.458844 
 H78  H     0.348768     -0.232500     -0.118210 
 H79  H    -0.119973      0.487407      0.107416 
 H80  H     0.114913      0.228568     -0.397049 
 H81  H    -0.340655     -0.455573      0.423606 
 H82  H    -0.230460     -0.110370      0.373917 
 H83  H    -0.113440      0.378780     -0.231488 
 H84  H    -0.490867      0.394309     -0.380396 
 H85  H     0.463870      0.115205     -0.120585 
 H86  H     0.115265     -0.117521      0.452265 
 H87  H    -0.419752      0.117611      0.229759 
 H88  H     0.232679     -0.426486      0.114522 
 H89  H     0.391477     -0.378085     -0.491721 
 H90  H    -0.461445     -0.457871      0.178703 
 H91  H     0.356474      0.360002     -0.185177 
 H92  H     0.457504     -0.339227     -0.003149 
 H93  H    -0.352172      0.461172     -0.003117 
 H94  H     0.186791     -0.460955     -0.464203 
 H95  H    -0.461307      0.181562     -0.461004 
 H96  H    -0.003437     -0.359841      0.454937 
 H97  H     0.357309     -0.181291      0.357621 
 H98  H    -0.203197      0.339429      0.336190 
 H99  H    -0.351463      0.000109      0.458020 
 H100  H    -0.003441      0.458097     -0.363319 
 H101  H     0.457627      0.000111     -0.342270 
loop_  
_geom_bond_atom_site_label_1  
_geom_bond_atom_site_label_2  
Zn0   N42 
Zn0   N44 
Zn0   N60 
Zn0   N61 
Zn1   N43 
Zn1   N45 
Zn1   N58 
Zn1   N64 
Zn2   N46 
Zn2   N52 
Zn2   N55 
Zn2   N57 
Zn3   N47 
Zn3   N51 
Zn3   N62 
Zn3   N65 
Zn4   N48 
Zn4   N50 
Zn4   N54 
Zn4   N56 
Zn5   N49 
Zn5   N53 
Zn5   N59 
Zn5   N63 
C6   C23 
C6   N42 
C6   H66 
C7   C27 
C7   N43 
C7   H67 
C8   C26 
C8   N44 
C8   H68 
C9   C29 
C9   N45 
C9   H69 
C10   C22 
C10   N46 
C10   H70 
C11   C18 
C11   N47 
C11   H71 
C12   C24 
C12   N48 
C12   H72 
C13   C20 
C13   N49 
C13   H73 
C14   C28 
C14   N50 
C14   H74 
C15   C19 
C15   N51 
C15   H75 
C16   C25 
C16   N52 
C16   H76 
C17   C21 
C17   N53 
C17   H77 
C18   N54 
C18   H78 
C19   N55 
C19   H79 
C20   N56 
C20   H80 
C21   N57 
C21   H81 
C22   N58 
C22   H82 
C23   N59 
C23   H83 
C24   N60 
C24   H84 
C25   N61 
C25   H85 
C26   N62 
C26   H86 
C27   N63 
C27   H87 
C28   N64 
C28   H88 
C29   N65 
C29   H89 
C30   N42 
C30   N59 
C30   H95 
C31   N43 
C31   N63 
C31   H99 
C32   N44 
C32   N62 
C32   H101 
C33   N45 
C33   N65 
C33   H97 
C34   N46 
C34   N58 
C34   H90 
C35   N47 
C35   N54 
C35   H94 
C36   N48 
C36   N60 
C36   H91 
C37   N49 
C37   N56 
C37   H100 
C38   N50 
C38   N64 
C38   H92 
C39   N51 
C39   N55 
C39   H96 
C40   N52 
C40   N61 
C40   H93 
C41   N53 
C41   N57 
C41   H98 
  
#END  
