data_ZIF8_Br
_symmetry_cell_setting           triclinic 
_symmetry_space_group_name_H-M   'P 1' 
_symmetry_Int_Tables_number      1 
loop_ 
_symmetry_equiv_pos_site_id 
_symmetry_equiv_pos_as_xyz 
1 x,y,z 
_cell_length_a             14.939333        
_cell_length_b             14.939333        
_cell_length_c             14.939333        
_cell_angle_alpha         109.471219        
_cell_angle_beta          109.471222        
_cell_angle_gamma         109.471222        
loop_  
_atom_site_label   
_atom_site_type_symbol  
_atom_site_fract_x  
_atom_site_fract_y  
_atom_site_fract_z 
 Br0  Br    -0.480543     -0.167401     -0.478462 
 Br1  Br    -0.311016     -0.310068      0.172775 
 Br2  Br     0.482893      0.002123      0.315449 
 Br3  Br     0.313366      0.483837      0.003257 
 Br4  Br     0.313382      0.002113      0.484964 
 Br5  Br     0.482885      0.314327      0.003251 
 Br6  Br    -0.311039      0.171620     -0.308965 
 Br7  Br    -0.480540     -0.479596     -0.166253 
 Br8  Br     0.001169      0.483827      0.315451 
 Br9  Br    -0.168345     -0.479591     -0.478465 
 Br10  Br     0.001177      0.314323      0.484967 
 Br11  Br     0.170682     -0.310088     -0.308949 
 C12  C     0.386280     -0.243739      0.388360 
 C13  C    -0.367861     -0.366914      0.249107 
 C14  C    -0.383929      0.002123      0.372290 
 C15  C     0.370210     -0.382987      0.003255 
 C16  C     0.370210      0.002115     -0.381856 
 C17  C    -0.383937      0.371156      0.003249 
 C18  C    -0.367866      0.247973     -0.365790 
 C19  C     0.386282      0.387226     -0.242600 
 C20  C     0.001172     -0.382993      0.372287 
 C21  C    -0.244682      0.387230      0.388358 
 C22  C     0.001174      0.371158     -0.381857 
 C23  C     0.247026     -0.366922     -0.365784 
 C24  C     0.269478     -0.324291      0.214582 
 C25  C    -0.461092     -0.403170      0.329653 
 C26  C    -0.267127     -0.054851      0.408543 
 C27  C     0.463438     -0.209211      0.060227 
 C28  C     0.463423      0.059092     -0.208077 
 C29  C    -0.267134      0.407393     -0.053727 
 C30  C    -0.461078      0.328542     -0.402024 
 C31  C     0.269478      0.213447     -0.323164 
 C32  C     0.058150     -0.209214      0.465508 
 C33  C    -0.325236      0.270427      0.214580 
 C34  C    -0.055803      0.407403     -0.265056 
 C35  C     0.327587     -0.460140     -0.402026 
 C36  C     0.327584     -0.403167     -0.459004 
 C37  C    -0.055800     -0.266188      0.408532 
 C38  C    -0.325234      0.213453      0.271556 
 C39  C     0.058147      0.464376     -0.208079 
 C40  C    -0.404116     -0.460146      0.329652 
 C41  C     0.212504      0.270423     -0.323161 
 C42  C     0.406448     -0.054859     -0.265051 
 C43  C    -0.210159      0.464371      0.060223 
 C44  C    -0.404102      0.328544     -0.458998 
 C45  C     0.406461     -0.266188     -0.053723 
 C46  C     0.212502     -0.324295      0.271557 
 C47  C    -0.210152      0.059099      0.465516 
 H48  H     0.240282     -0.356694      0.126756 
 H49  H     0.483484     -0.399966      0.362055 
 H50  H    -0.237930     -0.113481      0.405338 
 H51  H    -0.481137     -0.121385      0.118856 
 H52  H    -0.481160      0.117723     -0.120250 
 H53  H    -0.237938      0.404180     -0.112357 
 H54  H     0.483506      0.360952     -0.398809 
 H55  H     0.240281      0.125620     -0.355573 
 H56  H     0.116781     -0.121388     -0.479071 
 H57  H    -0.357641      0.241231      0.126754 
 H58  H    -0.114434      0.404195     -0.235861 
 H59  H     0.359994      0.484441     -0.398815 
 H60  H     0.359990     -0.399958      0.485576 
 H61  H    -0.114429     -0.236990      0.405321 
 H62  H    -0.357637      0.125627      0.242360 
 H63  H     0.116777     -0.480206     -0.120252 
 H64  H    -0.400911      0.484429      0.362053 
 H65  H     0.124677      0.241227     -0.355567 
 H66  H     0.403235     -0.113488     -0.235853 
 H67  H    -0.122332     -0.480210      0.118853 
 H68  H    -0.400888      0.360956      0.485587 
 H69  H     0.403254     -0.236994     -0.112355 
 H70  H     0.124676     -0.356702      0.242360 
 H71  H    -0.122326      0.117729     -0.479062 
 N72  N     0.380668     -0.272899      0.289721 
 N73  N    -0.437340     -0.343366      0.278268 
 N74  N    -0.378317     -0.090903      0.348742 
 N75  N     0.439689     -0.284348      0.096281 
 N76  N     0.439682      0.095142     -0.283218 
 N77  N    -0.378325      0.347600     -0.089778 
 N78  N    -0.437338      0.277140     -0.342234 
 N79  N     0.380669      0.288586     -0.271768 
 N80  N     0.094200     -0.284355      0.441763 
 N81  N    -0.273847      0.381617      0.289719 
 N82  N    -0.091853      0.347609     -0.376246 
 N83  N     0.276193     -0.436394     -0.342230 
 N84  N     0.276189     -0.343372     -0.435260 
 N85  N    -0.091853     -0.377378      0.348734 
 N86  N    -0.273843      0.288592      0.382746 
 N87  N     0.094200      0.440630     -0.283217 
 N88  N    -0.344313     -0.436392      0.278266 
 N89  N     0.287644      0.381614     -0.271763 
 N90  N     0.346656     -0.090911     -0.376242 
 N91  N    -0.285298      0.440630      0.096275 
 N92  N    -0.344311      0.277143     -0.435260 
 N93  N     0.346659     -0.377377     -0.089772 
 N94  N     0.287641     -0.272905      0.382747 
 N95  N    -0.285291      0.095150      0.441765 
 Zn96  Zn    -0.498825     -0.247877      0.253255 
 Zn97  Zn    -0.498828      0.252115     -0.246751 
 Zn98  Zn     0.251173     -0.247886     -0.496747 
 Zn99  Zn    -0.248827     -0.497880      0.253249 
 Zn100  Zn    -0.248826      0.252123     -0.496750 
 Zn101  Zn     0.251174     -0.497883     -0.246745 
loop_  
_geom_bond_atom_site_label_1  
_geom_bond_atom_site_label_2  
Br0   C12 
Br1   C13 
Br2   C14 
Br3   C15 
Br4   C16 
Br5   C17 
Br6   C18 
Br7   C19 
Br8   C20 
Br9   C21 
Br10   C22 
Br11   C23 
C12   N72 
C12   N94 
C13   N73 
C13   N88 
C14   N74 
C14   N95 
C15   N75 
C15   N93 
C16   N76 
C16   N90 
C17   N77 
C17   N91 
C18   N78 
C18   N92 
C19   N79 
C19   N89 
C20   N80 
C20   N85 
C21   N81 
C21   N86 
C22   N82 
C22   N87 
C23   N83 
C23   N84 
C24   C46 
C24   H48 
C24   N72 
C25   C40 
C25   H49 
C25   N73 
C26   C47 
C26   H50 
C26   N74 
C27   C45 
C27   H51 
C27   N75 
C28   C42 
C28   H52 
C28   N76 
C29   C43 
C29   H53 
C29   N77 
C30   C44 
C30   H54 
C30   N78 
C31   C41 
C31   H55 
C31   N79 
C32   C37 
C32   H56 
C32   N80 
C33   C38 
C33   H57 
C33   N81 
C34   C39 
C34   H58 
C34   N82 
C35   C36 
C35   H59 
C35   N83 
C36   H60 
C36   N84 
C37   H61 
C37   N85 
C38   H62 
C38   N86 
C39   H63 
C39   N87 
C40   H64 
C40   N88 
C41   H65 
C41   N89 
C42   H66 
C42   N90 
C43   H67 
C43   N91 
C44   H68 
C44   N92 
C45   H69 
C45   N93 
C46   H70 
C46   N94 
C47   H71 
C47   N95 
N72   Zn96 
N73   Zn96 
N74   Zn96 
N75   Zn96 
N76   Zn97 
N77   Zn97 
N78   Zn97 
N79   Zn97 
N80   Zn98 
N81   Zn99 
N82   Zn100 
N83   Zn101 
N84   Zn98 
N85   Zn99 
N86   Zn100 
N87   Zn101 
N88   Zn99 
N89   Zn101 
N90   Zn98 
N91   Zn99 
N92   Zn100 
N93   Zn101 
N94   Zn98 
N95   Zn100 
  
#END  
