data_ZIF8_Cl
_symmetry_cell_setting           triclinic 
_symmetry_space_group_name_H-M   'P 1' 
_symmetry_Int_Tables_number      1 
loop_ 
_symmetry_equiv_pos_site_id 
_symmetry_equiv_pos_as_xyz 
1 x,y,z 
_cell_length_a             14.897000        
_cell_length_b             14.897000        
_cell_length_c             14.897000        
_cell_angle_alpha         109.471218        
_cell_angle_beta          109.471221        
_cell_angle_gamma         109.471222        
loop_  
_atom_site_label   
_atom_site_type_symbol  
_atom_site_fract_x  
_atom_site_fract_y  
_atom_site_fract_z 
 C0  C    -0.209242      0.054909      0.457990 
 C1  C     0.403085     -0.268611     -0.059358 
 C2  C     0.209247     -0.332775      0.264166 
 C3  C    -0.403050     -0.462418      0.328347 
 C4  C    -0.403063      0.328316     -0.462431 
 C5  C     0.209255      0.264162     -0.332756 
 C6  C     0.403077     -0.059362     -0.268604 
 C7  C    -0.209239      0.457982      0.054927 
 C8  C     0.330546     -0.462436     -0.405295 
 C9  C     0.057142     -0.211468      0.457981 
 C10  C    -0.330545      0.264160      0.207027 
 C11  C    -0.057132      0.400852     -0.268607 
 C12  C    -0.057137     -0.268609      0.400842 
 C13  C    -0.330544      0.207019      0.264165 
 C14  C     0.057147      0.457993     -0.211467 
 C15  C     0.330545     -0.405295     -0.462434 
 C16  C    -0.266376      0.400844     -0.059352 
 C17  C     0.460223     -0.211473      0.054921 
 C18  C     0.266386     -0.332776      0.207026 
 C19  C    -0.460191     -0.405280      0.328345 
 C20  C    -0.266383     -0.059370      0.400849 
 C21  C     0.266395      0.207023     -0.332754 
 C22  C     0.460219      0.054918     -0.211464 
 C23  C    -0.460201      0.328319     -0.405290 
 C24  C    -0.384006     -0.002227      0.368984 
 C25  C     0.371207     -0.386238     -0.002221 
 C26  C     0.384014     -0.247007      0.381792 
 C27  C    -0.371204     -0.373433      0.242565 
 C28  C    -0.371193      0.242563     -0.373419 
 C29  C     0.384019      0.381788     -0.247007 
 C30  C     0.371211     -0.002221     -0.386229 
 C31  C    -0.384006      0.368981     -0.002216 
 C32  C     0.244793     -0.373425     -0.373421 
 C33  C     0.000004     -0.386235      0.368990 
 C34  C    -0.244778      0.381785      0.381794 
 C35  C     0.000008      0.368976     -0.386232 
 Cl36  Cl     0.493859     -0.002225      0.319591 
 Cl37  Cl     0.321805      0.491626     -0.002222 
 Cl38  Cl    -0.493849     -0.174258     -0.496072 
 Cl39  Cl    -0.321825     -0.324054      0.169807 
 Cl40  Cl    -0.321796      0.169825     -0.324021 
 Cl41  Cl    -0.493846     -0.496076     -0.174274 
 Cl42  Cl     0.321817     -0.002221      0.491635 
 Cl43  Cl     0.493856      0.319590     -0.002219 
 Cl44  Cl     0.172057     -0.324027     -0.324021 
 Cl45  Cl     0.000005      0.491629      0.319607 
 Cl46  Cl    -0.172031     -0.496080     -0.496069 
 Cl47  Cl     0.000008      0.319574      0.491633 
 H48  H    -0.120954      0.113659     -0.488203 
 H49  H     0.398148     -0.239074     -0.118108 
 H50  H     0.120960     -0.367257      0.234630 
 H51  H    -0.398098      0.483783      0.362837 
 H52  H    -0.398123      0.362791      0.483757 
 H53  H     0.120968      0.234625     -0.367231 
 H54  H     0.398132     -0.118113     -0.239068 
 H55  H    -0.120952     -0.488213      0.113680 
 H56  H     0.365024      0.483754     -0.400356 
 H57  H     0.115892     -0.123180     -0.488218 
 H58  H    -0.365029      0.234624      0.118740 
 H59  H    -0.115883      0.395913     -0.239071 
 H60  H    -0.115889     -0.239073      0.395893 
 H61  H    -0.365026      0.118731      0.234628 
 H62  H     0.115898     -0.488193     -0.123180 
 H63  H     0.365021     -0.400354      0.483755 
 H64  H    -0.236838      0.395899     -0.118101 
 H65  H    -0.485966     -0.123186      0.113673 
 H66  H     0.236849     -0.367261      0.118738 
 H67  H     0.486009     -0.400329      0.362834 
 H68  H    -0.236848     -0.118122      0.395905 
 H69  H     0.236861      0.118736     -0.367227 
 H70  H    -0.485972      0.113668     -0.123177 
 H71  H     0.485990      0.362798     -0.400348 
 N72  N    -0.284899      0.091039      0.437124 
 N73  N     0.346085     -0.380397     -0.095487 
 N74  N     0.284907     -0.277976      0.375953 
 N75  N    -0.346069     -0.441564      0.273541 
 N76  N    -0.346068      0.273526     -0.441562 
 N77  N     0.284912      0.375948     -0.277972 
 N78  N     0.346081     -0.095489     -0.380390 
 N79  N    -0.284900      0.437118      0.091052 
 N80  N     0.275759     -0.441566     -0.348296 
 N81  N     0.093271     -0.287127      0.437123 
 N82  N    -0.275749      0.375946      0.282687 
 N83  N    -0.093259      0.343850     -0.380392 
 N84  N    -0.093264     -0.380396      0.343857 
 N85  N    -0.275747      0.282677      0.375953 
 N86  N     0.093275      0.437120     -0.287125 
 N87  N     0.275757     -0.348298     -0.441562 
 N88  N    -0.378164      0.343853     -0.095482 
 N89  N     0.439348     -0.287132      0.091047 
 N90  N     0.378173     -0.277979      0.282685 
 N91  N    -0.439338     -0.348299      0.273539 
 N92  N    -0.378169     -0.095495      0.343856 
 N93  N     0.378181      0.282682     -0.277969 
 N94  N     0.439353      0.091046     -0.287122 
 N95  N    -0.439332      0.273531     -0.348292 
 Zn96  Zn    -0.249992      0.247772      0.497781 
 Zn97  Zn     0.250008      0.497776     -0.252221 
 Zn98  Zn     0.250004     -0.252221      0.497782 
 Zn99  Zn    -0.249997      0.497775      0.247785 
 Zn100  Zn    -0.499990      0.247779     -0.252216 
 Zn101  Zn    -0.499999     -0.252228      0.247780 
loop_  
_geom_bond_atom_site_label_1  
_geom_bond_atom_site_label_2  
C0   C20 
C0   H48 
C0   N72 
C1   C17 
C1   H49 
C1   N73 
C2   C18 
C2   H50 
C2   N74 
C3   C19 
C3   H51 
C3   N75 
C4   C23 
C4   H52 
C4   N76 
C5   C21 
C5   H53 
C5   N77 
C6   C22 
C6   H54 
C6   N78 
C7   C16 
C7   H55 
C7   N79 
C8   C15 
C8   H56 
C8   N80 
C9   C12 
C9   H57 
C9   N81 
C10   C13 
C10   H58 
C10   N82 
C11   C14 
C11   H59 
C11   N83 
C12   H60 
C12   N84 
C13   H61 
C13   N85 
C14   H62 
C14   N86 
C15   H63 
C15   N87 
C16   H64 
C16   N88 
C17   H65 
C17   N89 
C18   H66 
C18   N90 
C19   H67 
C19   N91 
C20   H68 
C20   N92 
C21   H69 
C21   N93 
C22   H70 
C22   N94 
C23   H71 
C23   N95 
C24   Cl36 
C24   N72 
C24   N92 
C25   Cl37 
C25   N73 
C25   N89 
C26   Cl38 
C26   N74 
C26   N90 
C27   Cl39 
C27   N75 
C27   N91 
C28   Cl40 
C28   N76 
C28   N95 
C29   Cl41 
C29   N77 
C29   N93 
C30   Cl42 
C30   N78 
C30   N94 
C31   Cl43 
C31   N79 
C31   N88 
C32   Cl44 
C32   N80 
C32   N87 
C33   Cl45 
C33   N81 
C33   N84 
C34   Cl46 
C34   N82 
C34   N85 
C35   Cl47 
C35   N83 
C35   N86 
N72   Zn96 
N73   Zn97 
N74   Zn98 
N75   Zn99 
N76   Zn96 
N77   Zn97 
N78   Zn98 
N79   Zn99 
N80   Zn97 
N81   Zn98 
N82   Zn99 
N83   Zn96 
N84   Zn99 
N85   Zn96 
N86   Zn97 
N87   Zn98 
N88   Zn100 
N89   Zn101 
N90   Zn101 
N91   Zn101 
N92   Zn101 
N93   Zn100 
N94   Zn100 
N95   Zn100 
  
#END  
