data_ZIF90
_symmetry_cell_setting           triclinic 
_symmetry_space_group_name_H-M   'P 1' 
_symmetry_Int_Tables_number      1 
loop_ 
_symmetry_equiv_pos_site_id 
_symmetry_equiv_pos_as_xyz 
1 x,y,z 
_cell_length_a             17.265994        
_cell_length_b             17.265994        
_cell_length_c             17.265994        
_cell_angle_alpha          90.000000        
_cell_angle_beta           90.000000        
_cell_angle_gamma          90.000000        
loop_  
_atom_site_label   
_atom_site_type_symbol  
_atom_site_fract_x  
_atom_site_fract_y  
_atom_site_fract_z 
 Zn0  Zn     0.250111      0.499992      0.000020 
 Zn1  Zn     0.000090      0.249993     -0.499981 
 Zn2  Zn    -0.499910     -0.000005      0.250020 
 Zn3  Zn     0.000089     -0.250007     -0.499978 
 Zn4  Zn    -0.499911     -0.000010     -0.249980 
 Zn5  Zn    -0.249889      0.499993      0.000021 
 Zn6  Zn     0.250088     -0.000007     -0.499980 
 Zn7  Zn    -0.499888      0.249993      0.000020 
 Zn8  Zn     0.000112      0.499993      0.250020 
 Zn9  Zn    -0.499888     -0.250007      0.000020 
 Zn10  Zn     0.000112      0.499993     -0.249980 
 Zn11  Zn    -0.249911     -0.000008     -0.499980 
 H12  H    -0.279301      0.149212     -0.394542 
 H13  H    -0.394445     -0.279390      0.149242 
 H14  H     0.149329     -0.394557     -0.279369 
 H15  H    -0.279298     -0.149227      0.394580 
 H16  H    -0.394445      0.279377     -0.149200 
 H17  H     0.149328      0.394540      0.279407 
 H18  H     0.279473      0.149214      0.394578 
 H19  H     0.394678     -0.279399     -0.149201 
 H20  H    -0.149111     -0.394572      0.279400 
 H21  H     0.279475     -0.149231     -0.394540 
 H22  H     0.394675      0.279382      0.149242 
 H23  H    -0.149111      0.394560     -0.279361 
 H24  H    -0.350669      0.220603      0.105469 
 H25  H     0.220702      0.105433     -0.350760 
 H26  H     0.105558     -0.350789      0.220639 
 H27  H     0.350888      0.220610     -0.105412 
 H28  H    -0.220526      0.105435      0.350800 
 H29  H    -0.105323     -0.350785     -0.220588 
 H30  H    -0.350670     -0.220617     -0.105429 
 H31  H     0.220699     -0.105445      0.350801 
 H32  H     0.105555      0.350772     -0.220596 
 H33  H     0.350887     -0.220622      0.105450 
 H34  H    -0.220528     -0.105451     -0.350758 
 H35  H    -0.105328      0.350773      0.220634 
 H36  H     0.394348     -0.150246     -0.278959 
 H37  H    -0.278871      0.394256     -0.150218 
 H38  H    -0.150140     -0.279000      0.394281 
 H39  H     0.394348      0.150231      0.278999 
 H40  H    -0.278869     -0.394268      0.150259 
 H41  H    -0.150141      0.278987     -0.394242 
 H42  H    -0.394178     -0.150247      0.279006 
 H43  H     0.279096      0.394257      0.150260 
 H44  H     0.150335     -0.278977     -0.394243 
 H45  H    -0.394181      0.150232     -0.278969 
 H46  H     0.279099     -0.394275     -0.150219 
 H47  H     0.150334      0.278959      0.394280 
 H48  H     0.349858     -0.105742      0.221024 
 H49  H    -0.105653      0.221014      0.349784 
 H50  H     0.221131      0.349755     -0.105719 
 H51  H    -0.349664     -0.105744     -0.221010 
 H52  H     0.105822      0.221006     -0.349740 
 H53  H    -0.220906      0.349754      0.105758 
 H54  H     0.349858      0.105729     -0.220985 
 H55  H    -0.105653     -0.221031     -0.349742 
 H56  H     0.221133     -0.349772      0.105760 
 H57  H    -0.349663      0.105730      0.221050 
 H58  H     0.105821     -0.221020      0.349782 
 H59  H    -0.220902     -0.349767     -0.105713 
 H60  H     0.447666      0.113077     -0.361191 
 H61  H    -0.361109      0.447582      0.113100 
 H62  H     0.113182     -0.361220      0.447613 
 H63  H     0.447666     -0.113093      0.361229 
 H64  H    -0.361108     -0.447595     -0.113059 
 H65  H     0.113181      0.361204     -0.447575 
 H66  H    -0.447508      0.113068      0.361238 
 H67  H     0.361320      0.447578     -0.113061 
 H68  H    -0.112979     -0.361229     -0.447563 
 H69  H    -0.447508     -0.113084     -0.361199 
 H70  H     0.361319     -0.447592      0.113104 
 H71  H    -0.112978      0.361216      0.447604 
 H72  H    -0.386818     -0.052414      0.138809 
 H73  H    -0.052334      0.138783     -0.386893 
 H74  H     0.138893     -0.386927     -0.052393 
 H75  H     0.387021     -0.052426     -0.138761 
 H76  H     0.052491      0.138773      0.386945 
 H77  H    -0.138678     -0.386928      0.052431 
 H78  H    -0.386818      0.052401     -0.138771 
 H79  H    -0.052331     -0.138794      0.386937 
 H80  H     0.138889      0.386914      0.052428 
 H81  H     0.387022      0.052411      0.138799 
 H82  H     0.052492     -0.138789     -0.386903 
 H83  H    -0.138681      0.386910     -0.052396 
 C84  C     0.124981     -0.125515     -0.490094 
 C85  C    -0.490010      0.124888     -0.125492 
 C86  C    -0.125401     -0.490122      0.124917 
 C87  C     0.124981      0.125500      0.490136 
 C88  C    -0.490010     -0.124902      0.125530 
 C89  C    -0.125402      0.490106     -0.124877 
 C90  C    -0.124813     -0.125522      0.490135 
 C91  C     0.490221      0.124892      0.125531 
 C92  C     0.125623     -0.490123     -0.124878 
 C93  C    -0.124813      0.125508     -0.490092 
 C94  C     0.490220     -0.124907     -0.125492 
 C95  C     0.125621      0.490107      0.124916 
 C96  C     0.374599     -0.375110      0.009908 
 C97  C    -0.375018      0.009878      0.374512 
 C98  C     0.009990      0.374483     -0.375085 
 C99  C    -0.374378     -0.375109     -0.009863 
 C100  C     0.375187      0.009878     -0.374465 
 C101  C    -0.009781      0.374481      0.375121 
 C102  C     0.374599      0.375095     -0.009865 
 C103  C    -0.375019     -0.009893     -0.374473 
 C104  C     0.009990     -0.374497      0.375124 
 C105  C    -0.374379      0.375096      0.009905 
 C106  C     0.375187     -0.009894      0.374504 
 C107  C    -0.009781     -0.374496     -0.375081 
 C108  C     0.318722      0.103076      0.375784 
 C109  C     0.375880      0.318631      0.103104 
 C110  C     0.103189      0.375750      0.318656 
 C111  C     0.318723     -0.103093     -0.375745 
 C112  C     0.375882     -0.318647     -0.103063 
 C113  C     0.103189     -0.375766     -0.318617 
 C114  C    -0.318552      0.103076     -0.375750 
 C115  C    -0.375654      0.318629     -0.103063 
 C116  C    -0.102976      0.375765     -0.318614 
 C117  C    -0.318549     -0.103090      0.375788 
 C118  C    -0.375653     -0.318641      0.103105 
 C119  C    -0.102977     -0.375778      0.318653 
 C120  C    -0.396810     -0.181369     -0.124220 
 C121  C    -0.181278     -0.124245     -0.396896 
 C122  C    -0.124119     -0.396923     -0.181340 
 C123  C     0.397022     -0.181371      0.124246 
 C124  C     0.181449     -0.124238      0.396938 
 C125  C     0.124348     -0.396926      0.181387 
 C126  C    -0.396809      0.181355      0.124260 
 C127  C    -0.181278      0.124229      0.396938 
 C128  C    -0.124122      0.396910      0.181384 
 C129  C     0.397022      0.181358     -0.124208 
 C130  C     0.181450      0.124225     -0.396896 
 C131  C     0.124347      0.396909     -0.181346 
 C132  C    -0.376121     -0.103695      0.318278 
 C133  C     0.318369     -0.376217     -0.103667 
 C134  C    -0.103586      0.318255     -0.376185 
 C135  C    -0.376123      0.103680     -0.318240 
 C136  C     0.318367      0.376199      0.103708 
 C137  C    -0.103586     -0.318268      0.376225 
 C138  C     0.376291     -0.103695     -0.318231 
 C139  C    -0.318141     -0.376212      0.103708 
 C140  C     0.103787      0.318236      0.376224 
 C141  C     0.376291      0.103679      0.318271 
 C142  C    -0.318143      0.376199     -0.103667 
 C143  C     0.103788     -0.318253     -0.376186 
 C144  C     0.396413      0.123786     -0.181717 
 C145  C     0.123878     -0.181748      0.396333 
 C146  C    -0.181634      0.396306      0.123814 
 C147  C    -0.396211      0.123787      0.181774 
 C148  C    -0.123710     -0.181758     -0.396293 
 C149  C     0.181859      0.396306     -0.123776 
 C150  C     0.396413     -0.123799      0.181756 
 C151  C     0.123879      0.181735     -0.396292 
 C152  C    -0.181631     -0.396319     -0.123771 
 C153  C    -0.396212     -0.123801     -0.181734 
 C154  C    -0.123709      0.181742      0.396335 
 C155  C     0.181860     -0.396322      0.123816 
 C156  C    -0.103140     -0.105404      0.410561 
 C157  C     0.410647     -0.103233     -0.105371 
 C158  C    -0.105290      0.410530     -0.103205 
 C159  C    -0.103142      0.105392     -0.410517 
 C160  C     0.410648      0.103218      0.105409 
 C161  C    -0.105286     -0.410547      0.103240 
 C162  C     0.103302     -0.105398     -0.410521 
 C163  C    -0.410436     -0.103225      0.105417 
 C164  C     0.105499      0.410536      0.103237 
 C165  C     0.103302      0.105383      0.410563 
 C166  C    -0.410435      0.103212     -0.105380 
 C167  C     0.105503     -0.410550     -0.103202 
 C168  C     0.394712      0.396769     -0.089440 
 C169  C     0.396858     -0.089469      0.394619 
 C170  C    -0.089352      0.394605      0.396796 
 C171  C    -0.394499      0.396773      0.089478 
 C172  C    -0.396698     -0.089466     -0.394590 
 C173  C     0.089564      0.394596     -0.396764 
 C174  C     0.394711     -0.396783      0.089483 
 C175  C     0.396859      0.089452     -0.394582 
 C176  C    -0.089353     -0.394618     -0.396755 
 C177  C    -0.394498     -0.396786     -0.089436 
 C178  C    -0.396697      0.089450      0.394629 
 C179  C     0.089564     -0.394610      0.396801 
 N180  N    -0.318046      0.031829     -0.410219 
 N181  N    -0.410124     -0.318137      0.031859 
 N182  N     0.031945     -0.410242     -0.318111 
 N183  N    -0.318044     -0.031843      0.410258 
 N184  N    -0.410125      0.318124     -0.031817 
 N185  N     0.031945      0.410227      0.318150 
 N186  N     0.318216      0.031829      0.410253 
 N187  N     0.410349     -0.318140     -0.031815 
 N188  N    -0.031728     -0.410244      0.318149 
 N189  N     0.318217     -0.031846     -0.410215 
 N190  N     0.410348      0.318124      0.031857 
 N191  N    -0.031727      0.410231     -0.318110 
 N192  N    -0.468053      0.181861      0.089785 
 N193  N     0.181955      0.089755     -0.468143 
 N194  N     0.089876     -0.468171      0.181890 
 N195  N     0.468272      0.181863     -0.089743 
 N196  N    -0.181783      0.089759      0.468185 
 N197  N    -0.089652     -0.468171     -0.181848 
 N198  N    -0.468054     -0.181876     -0.089746 
 N199  N     0.181954     -0.089768      0.468185 
 N200  N     0.089876      0.468155     -0.181850 
 N201  N     0.468271     -0.181875      0.089781 
 N202  N    -0.181783     -0.089774     -0.468142 
 N203  N    -0.089653      0.468157      0.181889 
 N204  N    -0.317591      0.411526     -0.032419 
 N205  N    -0.032340     -0.317713      0.411554 
 N206  N     0.411616     -0.032446     -0.317677 
 N207  N    -0.317590     -0.411538      0.032461 
 N208  N    -0.032339      0.317699     -0.411514 
 N209  N     0.411616      0.032431      0.317717 
 N210  N     0.317812      0.411524      0.032460 
 N211  N     0.032538     -0.317704     -0.411510 
 N212  N    -0.411448     -0.032448      0.317726 
 N213  N     0.317814     -0.411540     -0.032418 
 N214  N     0.032538      0.317689      0.411549 
 N215  N    -0.411449      0.032433     -0.317687 
 N216  N    -0.088385      0.182296      0.467584 
 N217  N     0.182411      0.467554     -0.088449 
 N218  N     0.467660     -0.088472      0.182313 
 N219  N     0.088552      0.182287     -0.467539 
 N220  N    -0.182188      0.467553      0.088488 
 N221  N    -0.467461     -0.088478     -0.182283 
 N222  N    -0.088384     -0.182311     -0.467542 
 N223  N     0.182409     -0.467569      0.088488 
 N224  N     0.467660      0.088458     -0.182274 
 N225  N     0.088552     -0.182301      0.467581 
 N226  N    -0.182187     -0.467568     -0.088447 
 N227  N    -0.467461      0.088464      0.182323 
 O228  O     0.363115      0.128987     -0.444346 
 O229  O    -0.444263      0.363033      0.129014 
 O230  O     0.129106     -0.444368      0.363059 
 O231  O     0.363113     -0.129006      0.444381 
 O232  O    -0.444264     -0.363045     -0.128971 
 O233  O     0.129107      0.444355     -0.363024 
 O234  O    -0.362959      0.128991      0.444391 
 O235  O     0.444472      0.363028     -0.128980 
 O236  O    -0.128885     -0.444385     -0.363014 
 O237  O    -0.362960     -0.129005     -0.444353 
 O238  O     0.444469     -0.363040      0.129025 
 O239  O    -0.128884      0.444372      0.363054 
 O240  O    -0.370894     -0.136965      0.055658 
 O241  O    -0.136886      0.055630     -0.370981 
 O242  O     0.055738     -0.371015     -0.136942 
 O243  O     0.371114     -0.136975     -0.055605 
 O244  O     0.137041      0.055621      0.371023 
 O245  O    -0.055526     -0.371007      0.136982 
 O246  O    -0.370892      0.136955     -0.055623 
 O247  O    -0.136884     -0.055641      0.371026 
 O248  O     0.055733      0.371000      0.136976 
 O249  O     0.371117      0.136959      0.055641 
 O250  O     0.137040     -0.055635     -0.370981 
 O251  O    -0.055531      0.370990     -0.136948 
loop_  
_geom_bond_atom_site_label_1  
_geom_bond_atom_site_label_2  
Zn0   N210 
Zn0   N213 
Zn0   N217 
Zn0   N223 
Zn1   N208 
Zn1   N214 
Zn1   N216 
Zn1   N219 
Zn2   N209 
Zn2   N212 
Zn2   N218 
Zn2   N227 
Zn3   N205 
Zn3   N211 
Zn3   N222 
Zn3   N225 
Zn4   N206 
Zn4   N215 
Zn4   N221 
Zn4   N224 
Zn5   N204 
Zn5   N207 
Zn5   N220 
Zn5   N226 
Zn6   N186 
Zn6   N189 
Zn6   N193 
Zn6   N199 
Zn7   N184 
Zn7   N190 
Zn7   N192 
Zn7   N195 
Zn8   N185 
Zn8   N188 
Zn8   N194 
Zn8   N203 
Zn9   N181 
Zn9   N187 
Zn9   N198 
Zn9   N201 
Zn10   N182 
Zn10   N191 
Zn10   N197 
Zn10   N200 
Zn11   N180 
Zn11   N183 
Zn11   N196 
Zn11   N202 
H12   C114 
H13   C118 
H14   C113 
H15   C117 
H16   C115 
H17   C110 
H18   C108 
H19   C112 
H20   C119 
H21   C111 
H22   C109 
H23   C116 
H24   C126 
H25   C130 
H26   C125 
H27   C129 
H28   C127 
H29   C122 
H30   C120 
H31   C124 
H32   C131 
H33   C123 
H34   C121 
H35   C128 
H36   C138 
H37   C142 
H38   C137 
H39   C141 
H40   C139 
H41   C134 
H42   C132 
H43   C136 
H44   C143 
H45   C135 
H46   C133 
H47   C140 
H48   C150 
H49   C154 
H50   C149 
H51   C153 
H52   C151 
H53   C146 
H54   C144 
H55   C148 
H56   C155 
H57   C147 
H58   C145 
H59   C152 
H60   C175 
H61   C171 
H62   C179 
H63   C169 
H64   C177 
H65   C173 
H66   C178 
H67   C168 
H68   C176 
H69   C172 
H70   C174 
H71   C170 
H72   C163 
H73   C159 
H74   C167 
H75   C157 
H76   C165 
H77   C161 
H78   C166 
H79   C156 
H80   C164 
H81   C160 
H82   C162 
H83   C158 
C84   C162 
C84   N199 
C84   N225 
C85   C166 
C85   N195 
C85   N224 
C86   C161 
C86   N203 
C86   N220 
C87   C165 
C87   N193 
C87   N219 
C88   C163 
C88   N201 
C88   N218 
C89   C158 
C89   N197 
C89   N226 
C90   C156 
C90   N202 
C90   N222 
C91   C160 
C91   N192 
C91   N227 
C92   C167 
C92   N200 
C92   N217 
C93   C159 
C93   N196 
C93   N216 
C94   C157 
C94   N198 
C94   N221 
C95   C164 
C95   N194 
C95   N223 
C96   C174 
C96   N187 
C96   N213 
C97   C178 
C97   N183 
C97   N212 
C98   C173 
C98   N191 
C98   N208 
C99   C177 
C99   N181 
C99   N207 
C100   C175 
C100   N189 
C100   N206 
C101   C170 
C101   N185 
C101   N214 
C102   C168 
C102   N190 
C102   N210 
C103   C172 
C103   N180 
C103   N215 
C104   C179 
C104   N188 
C104   N205 
C105   C171 
C105   N184 
C105   N204 
C106   C169 
C106   N186 
C106   N209 
C107   C176 
C107   N182 
C107   N211 
C108   C141 
C108   N186 
C109   C136 
C109   N190 
C110   C140 
C110   N185 
C111   C138 
C111   N189 
C112   C133 
C112   N187 
C113   C143 
C113   N182 
C114   C135 
C114   N180 
C115   C142 
C115   N184 
C116   C134 
C116   N191 
C117   C132 
C117   N183 
C118   C139 
C118   N181 
C119   C137 
C119   N188 
C120   C153 
C120   N198 
C121   C148 
C121   N202 
C122   C152 
C122   N197 
C123   C150 
C123   N201 
C124   C145 
C124   N199 
C125   C155 
C125   N194 
C126   C147 
C126   N192 
C127   C154 
C127   N196 
C128   C146 
C128   N203 
C129   C144 
C129   N195 
C130   C151 
C130   N193 
C131   C149 
C131   N200 
C132   N212 
C133   N213 
C134   N208 
C135   N215 
C136   N210 
C137   N205 
C138   N206 
C139   N207 
C140   N214 
C141   N209 
C142   N204 
C143   N211 
C144   N224 
C145   N225 
C146   N220 
C147   N227 
C148   N222 
C149   N217 
C150   N218 
C151   N219 
C152   N226 
C153   N221 
C154   N216 
C155   N223 
C156   O247 
C157   O243 
C158   O251 
C159   O241 
C160   O249 
C161   O245 
C162   O250 
C163   O240 
C164   O248 
C165   O244 
C166   O246 
C167   O242 
C168   O235 
C169   O231 
C170   O239 
C171   O229 
C172   O237 
C173   O233 
C174   O238 
C175   O228 
C176   O236 
C177   O232 
C178   O234 
C179   O230 
  
#END  
