data_zni
_symmetry_cell_setting           triclinic 
_symmetry_space_group_name_H-M   'P 1' 
_symmetry_Int_Tables_number      1 
loop_ 
_symmetry_equiv_pos_site_id 
_symmetry_equiv_pos_as_xyz 
1 x,y,z 
_cell_length_a             17.666113        
_cell_length_b             17.666113        
_cell_length_c             17.666113        
_cell_angle_alpha          97.258042        
_cell_angle_beta           97.258392        
_cell_angle_gamma         138.358545        
loop_  
_atom_site_label   
_atom_site_type_symbol  
_atom_site_fract_x  
_atom_site_fract_y  
_atom_site_fract_z 
 C0  C     0.381295      0.230535      0.097334 
 C1  C     0.136894      0.283953     -0.093646 
 C2  C    -0.017615      0.385045      0.352935 
 C3  C     0.035804     -0.370556     -0.349247 
 C4  C    -0.118705     -0.216046      0.150752 
 C5  C    -0.363105     -0.269464     -0.147066 
 C6  C     0.482384      0.129444     -0.402666 
 C7  C    -0.464197     -0.114956      0.406354 
 C8  C    -0.443804      0.314155      0.103870 
 C9  C     0.213979      0.452318     -0.100182 
 C10  C     0.066006      0.462130      0.261655 
 C11  C     0.204168     -0.195655     -0.257966 
 C12  C     0.056196     -0.047681      0.242033 
 C13  C    -0.286019     -0.185843     -0.238346 
 C14  C    -0.433996      0.304344     -0.396130 
 C15  C    -0.295832     -0.037872      0.399818 
 C16  C    -0.428936      0.375001      0.174514 
 C17  C     0.204179      0.396541     -0.170827 
 C18  C     0.126850      0.452329      0.307632 
 C19  C     0.148391     -0.180788     -0.303944 
 C20  C     0.071063     -0.103459      0.196056 
 C21  C    -0.295819     -0.124998     -0.192369 
 C22  C    -0.373151      0.319212     -0.325485 
 C23  C    -0.351609     -0.047672      0.329173 
 C24  C     0.388229      0.238857      0.353673 
 C25  C    -0.111122      0.034549     -0.349985 
 C26  C    -0.009292      0.137029      0.354323 
 C27  C    -0.213601     -0.363622     -0.350635 
 C28  C    -0.111771     -0.465451      0.149365 
 C29  C     0.388878     -0.261143     -0.145678 
 C30  C     0.490707      0.136378     -0.146327 
 C31  C     0.286400     -0.362972      0.150014 
 C32  C    -0.204492      0.364421      0.065967 
 C33  C     0.302148     -0.270466     -0.062280 
 C34  C     0.116270     -0.449704      0.072608 
 C35  C     0.481384      0.043657     -0.068920 
 C36  C     0.295506      0.229533      0.431079 
 C37  C    -0.197853     -0.135579     -0.427393 
 C38  C    -0.383730     -0.456343     -0.434034 
 C39  C    -0.018616      0.050297      0.437720 
 C40  C     0.315013      0.294176      0.381366 
 C41  C    -0.083497     -0.066360     -0.377680 
 C42  C     0.046026      0.164652      0.482857 
 C43  C    -0.314511     -0.436837     -0.479170 
 C44  C    -0.184986      0.433640      0.020830 
 C45  C     0.416504     -0.205823     -0.017143 
 C46  C    -0.453974      0.063163     -0.118632 
 C47  C     0.185488     -0.335348      0.122320 
 C48  C    -0.343629     -0.370213      0.265935 
 C49  C     0.367545      0.390429     -0.262247 
 C50  C     0.381635     -0.384305      0.477112 
 C51  C     0.142277     -0.095482     -0.473423 
 C52  C     0.156368     -0.109572      0.026577 
 C53  C    -0.132454      0.129787     -0.022890 
 C54  C    -0.118364      0.404519     -0.234065 
 C55  C    -0.357722      0.115695      0.237753 
 C56  C    -0.430176      0.132004      0.140854 
 C57  C    -0.005157      0.428964     -0.137166 
 C58  C    -0.116145      0.242993      0.065875 
 C59  C     0.180814     -0.182026     -0.062186 
 C60  C     0.069823     -0.071038      0.437813 
 C61  C     0.494843     -0.367996     -0.434125 
 C62  C     0.383853      0.317975     -0.359147 
 C63  C    -0.319185     -0.257006      0.362833 
 C64  C    -0.421158     -0.377240      0.356383 
 C65  C     0.270069      0.222452     -0.352697 
 C66  C     0.374610     -0.481779     -0.452385 
 C67  C    -0.025700     -0.173011      0.456073 
 C68  C     0.078841     -0.277549     -0.043926 
 C69  C    -0.229928      0.122760      0.047614 
 C70  C    -0.125390      0.326991     -0.143616 
 C71  C     0.474301      0.018220      0.147304 
 C72  C    -0.109995     -0.470113      0.395257 
 C73  C     0.138322      0.494741     -0.391570 
 C74  C     0.281739      0.386474      0.143575 
 C75  C     0.246593      0.138156     -0.139887 
 C76  C     0.390005     -0.005259      0.360112 
 C77  C    -0.361676      0.029888     -0.356424 
 C78  C    -0.218263     -0.361845     -0.104743 
 C79  C    -0.253407     -0.113526      0.108430 
 C80  C    -0.279474      0.412394      0.421444 
 C81  C    -0.005358      0.299075     -0.417756 
 C82  C     0.164246      0.242794      0.195561 
 C83  C     0.050926     -0.031323     -0.191874 
 C84  C     0.220526     -0.200925      0.308126 
 C85  C     0.494644     -0.087605     -0.304438 
 C86  C    -0.335756      0.468675     -0.078557 
 C87  C    -0.449074     -0.257207      0.082242 
 C88  C    -0.301345      0.349705      0.347734 
 C89  C     0.005664      0.350914     -0.344046 
 C90  C     0.101557      0.253815      0.154744 
 C91  C     0.102765     -0.053195     -0.151057 
 C92  C     0.198654     -0.149087      0.348943 
 C93  C    -0.494335     -0.150294     -0.345255 
 C94  C    -0.398445      0.446804     -0.152267 
 C95  C    -0.397235     -0.246185      0.155952 
 H96  H     0.285350      0.171886      0.074592 
 H97  H     0.100989      0.210752     -0.070903 
 H98  H    -0.076264      0.349139      0.390231 
 H99  H    -0.037398     -0.466501     -0.386544 
 H100  H    -0.214651     -0.289247      0.113456 
 H101  H    -0.399011     -0.328114     -0.109770 
 H102  H     0.423736      0.033499     -0.425409 
 H103  H     0.462601     -0.150862      0.429097 
 H104  H    -0.377384      0.330227      0.084538 
 H105  H     0.249382     -0.461930     -0.080851 
 H106  H     0.082078      0.497534      0.211307 
 H107  H     0.289920     -0.129235     -0.207618 
 H108  H     0.122617      0.038071      0.292381 
 H109  H    -0.250615     -0.169771     -0.288694 
 H110  H    -0.417925      0.370764     -0.415462 
 H111  H    -0.210080     -0.002468      0.419150 
 H112  H    -0.348166      0.450149      0.227961 
 H113  H     0.225879      0.423864     -0.224274 
 H114  H     0.201998      0.474030      0.302010 
 H115  H     0.175713     -0.100018     -0.298321 
 H116  H     0.151832     -0.076137      0.201678 
 H117  H    -0.274118     -0.049850     -0.197991 
 H118  H    -0.298003      0.399982     -0.272038 
 H119  H    -0.324286     -0.025971      0.275726 
 H120  H     0.431234      0.226098      0.325175 
 H121  H    -0.095384      0.106052     -0.321487 
 H122  H    -0.022051      0.152767      0.298558 
 H123  H    -0.142099     -0.320617     -0.294870 
 H124  H    -0.068767     -0.393948      0.205130 
 H125  H     0.404616     -0.273903     -0.201443 
 H126  H     0.477947      0.179383     -0.174825 
 H127  H     0.357903     -0.347233      0.178512 
 H128  H    -0.248694      0.274346      0.045593 
 H129  H     0.232447     -0.294295     -0.041905 
 H130  H     0.026194      0.480594      0.026735 
 H131  H     0.457556     -0.000546     -0.023046 
 H132  H     0.251303      0.205703      0.476951 
 H133  H    -0.267555     -0.225655     -0.473265 
 H134  H    -0.473805      0.499455     -0.454408 
 H135  H    -0.042444     -0.019404      0.458094 
 H136  H     0.291024      0.335970      0.377622 
 H137  H    -0.037959     -0.086605     -0.373936 
 H138  H     0.087818      0.210189     -0.451360 
 H139  H    -0.334756     -0.460825      0.455047 
 H140  H    -0.208975      0.413395     -0.044952 
 H141  H     0.462042     -0.164029      0.048639 
 H142  H    -0.412180      0.039173     -0.122377 
 H143  H     0.165243     -0.289812      0.126064 
 H144  H    -0.330576     -0.398750      0.215810 
 H145  H     0.389134      0.453607     -0.212121 
 H146  H     0.353098     -0.362717      0.435522 
 H147  H     0.205455     -0.082429     -0.431834 
 H148  H     0.169420     -0.046395      0.068165 
 H149  H    -0.110866      0.101250     -0.064480 
 H150  H    -0.146901      0.417572     -0.284190 
 H151  H    -0.294544      0.137284      0.287879 
 H152  H    -0.430471      0.173855      0.100484 
 H153  H     0.077065      0.469039     -0.096796 
 H154  H    -0.074293      0.325215      0.108023 
 H155  H     0.220889     -0.182321     -0.104332 
 H156  H     0.069528     -0.030963      0.395666 
 H157  H    -0.422935     -0.326144     -0.391978 
 H158  H     0.425704      0.317680     -0.399517 
 H159  H    -0.279111     -0.174785      0.403203 
 H160  H    -0.483270     -0.416266      0.391155 
 H161  H     0.196270      0.125568     -0.387470 
 H162  H     0.335583      0.444422     -0.429300 
 H163  H    -0.122584     -0.235122      0.432988 
 H164  H     0.016730     -0.374433     -0.067010 
 H165  H    -0.303727      0.083733      0.070699 
 H166  H    -0.164417      0.264880     -0.108843 
 H167  H     0.377417     -0.055579      0.112531 
 H168  H    -0.014228     -0.391642      0.401316 
 H169  H     0.210735     -0.415551     -0.397629 
 H170  H     0.360210      0.458887      0.126280 
 H171  H     0.336301      0.233923     -0.122591 
 H172  H     0.485772      0.084449      0.377408 
 H173  H    -0.289264      0.108359     -0.373720 
 H174  H    -0.139793     -0.266078     -0.098684 
 H175  H    -0.163699     -0.041113      0.102371 
 H176  H    -0.340790      0.384167      0.454974 
 H177  H    -0.067114      0.204228     -0.451287 
 H178  H     0.136019      0.181037      0.228651 
 H179  H    -0.043920     -0.092639     -0.224964 
 H180  H     0.159210     -0.295772      0.275036 
 H181  H     0.432887     -0.115831     -0.271348 
 H182  H    -0.363983      0.407359     -0.045027 
 H183  H     0.456080     -0.318964      0.048711 
 H184  H    -0.384989      0.258218      0.305214 
 H185  H    -0.043303      0.309790     -0.301526 
 H186  H     0.010070      0.204848      0.146901 
 H187  H     0.061641     -0.136839     -0.143214 
 H188  H     0.115010     -0.190211      0.356786 
 H189  H     0.456697     -0.241781     -0.353098 
 H190  H    -0.489932      0.363160     -0.194787 
 H191  H    -0.438359     -0.295153      0.198472 
 N192  N     0.459414      0.321361      0.169727 
 N193  N     0.155327      0.289679     -0.166040 
 N194  N     0.073210      0.403477      0.365642 
 N195  N     0.041529     -0.292438     -0.361954 
 N196  N    -0.040587     -0.210321      0.138046 
 N197  N    -0.344672     -0.178639     -0.134360 
 N198  N    -0.426790      0.207563     -0.330273 
 N199  N    -0.458472     -0.096524      0.333961 
 N200  N     0.435331      0.222187      0.055402 
 N201  N     0.170479      0.379922     -0.051714 
 N202  N    -0.025962      0.418630      0.290551 
 N203  N     0.131773     -0.316519     -0.286863 
 N204  N    -0.064668     -0.120077      0.213137 
 N205  N    -0.329519     -0.277811     -0.209450 
 N206  N     0.474036      0.183480     -0.444598 
 N207  N    -0.368229     -0.081372      0.448286 
 N208  N     0.373617      0.299273      0.332406 
 N209  N    -0.029440      0.041203     -0.328719 
 N210  N     0.051122      0.218709      0.429351 
 N211  N    -0.206948     -0.378235     -0.425664 
 N212  N    -0.126384     -0.458797      0.074337 
 N213  N     0.470561     -0.200727     -0.070650 
 N214  N    -0.448878      0.121765     -0.167593 
 N215  N     0.293053     -0.281291      0.171281 
 N216  N    -0.157276      0.429452      0.147550 
 N217  N     0.285595     -0.304833     -0.143863 
 N218  N     0.181302     -0.466255      0.090422 
 N219  N     0.447017      0.090873     -0.086734 
 N220  N     0.342723      0.195166      0.413265 
 N221  N    -0.214406     -0.070549     -0.409578 
 N222  N    -0.318699     -0.409127     -0.352451 
 N223  N    -0.052982      0.033746      0.356137 
 N224  N    -0.323814      0.193059      0.198123 
 N225  N    -0.001369      0.478058     -0.194434 
 N226  N    -0.055090      0.246781      0.020567 
 N227  N     0.229908     -0.075664     -0.016879 
 N228  N     0.176185     -0.021943      0.483120 
 N229  N     0.498630     -0.306941     -0.479432 
 N230  N     0.444908      0.424337     -0.301878 
 N231  N    -0.270091     -0.253219      0.305565 
 N232  N    -0.435850     -0.448417      0.294637 
 N233  N     0.260639      0.269506     -0.290950 
 N234  N     0.303432     -0.491211      0.491130 
 N235  N     0.021354     -0.187702     -0.487441 
 N236  N     0.064148     -0.230496      0.012559 
 N237  N    -0.239360      0.051583     -0.008872 
 N238  N    -0.196567      0.312299     -0.205362 
 N239  N    -0.478645      0.008789      0.209050 
 N240  N    -0.193142      0.425033      0.331646 
 N241  N     0.097080      0.475205     -0.327958 
 N242  N     0.176885      0.345232      0.121869 
 N243  N     0.227056      0.055008     -0.118182 
 N244  N     0.306857     -0.024795      0.381818 
 N245  N    -0.402919     -0.074966     -0.378130 
 N246  N    -0.323117     -0.444992     -0.168355 
 N247  N    -0.272943     -0.154768      0.172041 
 N248  N    -0.157700     -0.473100      0.451127 
 N249  N     0.079465      0.391166     -0.447440 
 N250  N     0.278752      0.327617      0.188293 
 N251  N     0.143018      0.090452     -0.184606 
 N252  N     0.342300     -0.108834      0.315394 
 N253  N    -0.420533      0.026901     -0.311706 
 N254  N    -0.221250     -0.409550     -0.048873 
 N255  N    -0.356982     -0.172384      0.052559 
 Zn256  Zn     0.419139      0.372078      0.244978 
 Zn257  Zn     0.130793      0.174152     -0.241291 
 Zn258  Zn     0.123927      0.378942      0.456635 
 Zn259  Zn    -0.073999     -0.332714     -0.452947 
 Zn260  Zn    -0.080864     -0.325849      0.047052 
 Zn261  Zn    -0.369206     -0.127922     -0.043366 
 Zn262  Zn    -0.376073      0.167287     -0.255021 
 Zn263  Zn     0.426001     -0.121058      0.258709 
 Zn264  Zn    -0.168376      0.373036      0.240491 
 Zn265  Zn     0.136239     -0.408874     -0.236803 
 Zn266  Zn     0.124887      0.384389      0.045106 
 Zn267  Zn     0.342977      0.079774     -0.041418 
 Zn268  Zn     0.331623      0.091125      0.458581 
 Zn269  Zn    -0.363762     -0.126964     -0.454893 
 Zn270  Zn    -0.375114     -0.420226     -0.259510 
 Zn271  Zn    -0.157022     -0.115610      0.263196 
loop_  
_geom_bond_atom_site_label_1  
_geom_bond_atom_site_label_2  
C0   H96 
C0   N192 
C0   N200 
C1   H97 
C1   N193 
C1   N201 
C2   H98 
C2   N194 
C2   N202 
C3   H99 
C3   N195 
C3   N203 
C4   H100 
C4   N196 
C4   N204 
C5   H101 
C5   N197 
C5   N205 
C6   H102 
C6   N198 
C6   N206 
C7   H103 
C7   N199 
C7   N207 
C8   C16 
C8   H104 
C8   N200 
C9   C17 
C9   H105 
C9   N201 
C10   C18 
C10   H106 
C10   N202 
C11   C19 
C11   H107 
C11   N203 
C12   C20 
C12   H108 
C12   N204 
C13   C21 
C13   H109 
C13   N205 
C14   C22 
C14   H110 
C14   N206 
C15   C23 
C15   H111 
C15   N207 
C16   H112 
C16   N192 
C17   H113 
C17   N193 
C18   H114 
C18   N194 
C19   H115 
C19   N195 
C20   H116 
C20   N196 
C21   H117 
C21   N197 
C22   H118 
C22   N198 
C23   H119 
C23   N199 
C24   H120 
C24   N208 
C24   N220 
C25   H121 
C25   N209 
C25   N221 
C26   H122 
C26   N210 
C26   N223 
C27   H123 
C27   N211 
C27   N222 
C28   H124 
C28   N212 
C28   N216 
C29   H125 
C29   N213 
C29   N217 
C30   H126 
C30   N214 
C30   N219 
C31   H127 
C31   N215 
C31   N218 
C32   C44 
C32   H128 
C32   N216 
C33   C45 
C33   H129 
C33   N217 
C34   C47 
C34   H130 
C34   N218 
C35   C46 
C35   H131 
C35   N219 
C36   C40 
C36   H132 
C36   N220 
C37   C41 
C37   H133 
C37   N221 
C38   C43 
C38   H134 
C38   N222 
C39   C42 
C39   H135 
C39   N223 
C40   H136 
C40   N208 
C41   H137 
C41   N209 
C42   H138 
C42   N210 
C43   H139 
C43   N211 
C44   H140 
C44   N212 
C45   H141 
C45   N213 
C46   H142 
C46   N214 
C47   H143 
C47   N215 
C48   H144 
C48   N231 
C48   N232 
C49   H145 
C49   N230 
C49   N233 
C50   H146 
C50   N229 
C50   N234 
C51   H147 
C51   N228 
C51   N235 
C52   H148 
C52   N227 
C52   N236 
C53   H149 
C53   N226 
C53   N237 
C54   H150 
C54   N225 
C54   N238 
C55   H151 
C55   N224 
C55   N239 
C56   C71 
C56   H152 
C56   N224 
C57   C70 
C57   H153 
C57   N225 
C58   C69 
C58   H154 
C58   N226 
C59   C68 
C59   H155 
C59   N227 
C60   C67 
C60   H156 
C60   N228 
C61   C66 
C61   H157 
C61   N229 
C62   C65 
C62   H158 
C62   N230 
C63   C64 
C63   H159 
C63   N231 
C64   H160 
C64   N232 
C65   H161 
C65   N233 
C66   H162 
C66   N234 
C67   H163 
C67   N235 
C68   H164 
C68   N236 
C69   H165 
C69   N237 
C70   H166 
C70   N238 
C71   H167 
C71   N239 
C72   H168 
C72   N240 
C72   N248 
C73   H169 
C73   N241 
C73   N249 
C74   H170 
C74   N242 
C74   N250 
C75   H171 
C75   N243 
C75   N251 
C76   H172 
C76   N244 
C76   N252 
C77   H173 
C77   N245 
C77   N253 
C78   H174 
C78   N246 
C78   N254 
C79   H175 
C79   N247 
C79   N255 
C80   C88 
C80   H176 
C80   N248 
C81   C89 
C81   H177 
C81   N249 
C82   C90 
C82   H178 
C82   N250 
C83   C91 
C83   H179 
C83   N251 
C84   C92 
C84   H180 
C84   N252 
C85   C93 
C85   H181 
C85   N253 
C86   C94 
C86   H182 
C86   N254 
C87   C95 
C87   H183 
C87   N255 
C88   H184 
C88   N240 
C89   H185 
C89   N241 
C90   H186 
C90   N242 
C91   H187 
C91   N243 
C92   H188 
C92   N244 
C93   H189 
C93   N245 
C94   H190 
C94   N246 
C95   H191 
C95   N247 
N192   Zn256 
N193   Zn257 
N194   Zn258 
N195   Zn259 
N196   Zn260 
N197   Zn261 
N198   Zn262 
N199   Zn263 
N200   Zn267 
N201   Zn266 
N202   Zn264 
N203   Zn265 
N204   Zn271 
N205   Zn270 
N206   Zn268 
N207   Zn269 
N208   Zn256 
N209   Zn257 
N210   Zn258 
N211   Zn259 
N212   Zn260 
N213   Zn261 
N214   Zn262 
N215   Zn263 
N216   Zn264 
N217   Zn265 
N218   Zn266 
N219   Zn267 
N220   Zn268 
N221   Zn269 
N222   Zn270 
N223   Zn271 
N224   Zn264 
N225   Zn265 
N226   Zn266 
N227   Zn267 
N228   Zn268 
N229   Zn269 
N230   Zn270 
N231   Zn271 
N232   Zn256 
N233   Zn257 
N234   Zn258 
N235   Zn259 
N236   Zn260 
N237   Zn261 
N238   Zn262 
N239   Zn263 
N240   Zn264 
N241   Zn265 
N242   Zn266 
N243   Zn267 
N244   Zn268 
N245   Zn269 
N246   Zn270 
N247   Zn271 
N248   Zn259 
N249   Zn258 
N250   Zn256 
N251   Zn257 
N252   Zn263 
N253   Zn262 
N254   Zn260 
N255   Zn261 
  
#END  
